
OS:Version,
  {7cfca1d7-e709-49ef-8bee-05b076e33d8e},  ! Handle
  0.7.6;                    ! Version Identifier

OS:Building,
  {30fd0c36-7e20-49e2-8bc6-936f0bf74bac},  ! Handle
  Medium Office,            ! Name
  ,                         ! Building Type
  -0,                       ! North Axis
  3.048,                    ! Nominal Floor to Floor Height
  {cd105d9d-4b8f-418f-b7f9-95673d78e6d9},  ! Space Type Name
  {2fd5769d-e3eb-462e-a377-c01e2b7bf396},  ! Default Construction Set Name
  {eabc66dd-14cc-4835-a605-d1fbe6bff788};  ! Default Schedule Set Name

OS:Construction,
  {1ecb61a8-f0d8-403f-86b3-0cf87ec5a8a5},  ! Handle
  000_ExtSlabCarpet_4in_ClimateZone 1-8,  ! Name
  {9f0f8441-86d5-48a5-96e6-815567922547},  ! Surface Rendering Name
  {28f8a956-3cbd-469e-ba89-20eee61cc3e8},  ! Layer 1
  {31704cc7-75a1-4aec-b68e-2338ef6f84cc};  ! Layer 2

OS:Construction,
  {1067d8c8-7098-415c-b705-5cf692090bcb},  ! Handle
  000_Exterior Door,        ! Name
  {cbd78b62-ced2-4b5f-b658-8afe2015a423},  ! Surface Rendering Name
  {c222c8d9-393f-48b1-81be-0db998153666},  ! Layer 1
  {96fc49cb-4b17-470e-ada6-57184250f359};  ! Layer 2

OS:Construction,
  {2bdab215-2704-49c5-a44b-5026de522431},  ! Handle
  000_Exterior Window,      ! Name
  {95848b4e-7874-4a36-8257-55c715307230},  ! Surface Rendering Name
  {6bea26eb-3440-4410-b862-e4aa66348c4d},  ! Layer 1
  {2da7bbf5-1a9a-479a-bd77-e8b78c7927af},  ! Layer 2
  {6bea26eb-3440-4410-b862-e4aa66348c4d};  ! Layer 3

OS:Construction,
  {ee147483-238a-4ff3-b5d1-3cad8e7ebfd3},  ! Handle
  000_Interior Ceiling,     ! Name
  {6a126cc3-0ae4-4e83-adc6-b6f7e8099508},  ! Surface Rendering Name
  {8e8067ea-3695-4135-97ba-71d670741a54},  ! Layer 1
  {40c7c189-1cd3-4a67-a49c-64312221b963},  ! Layer 2
  {722b72de-147b-45dd-8dab-5314012ce12a};  ! Layer 3

OS:Construction,
  {34eac519-7e02-47d8-9e2e-112c2370d4f1},  ! Handle
  000_Interior Door,        ! Name
  {cbd44e1c-6d4e-4ba8-8dea-0fe4a518d313},  ! Surface Rendering Name
  {c7c50385-667f-49f0-af85-ab8b3790508c};  ! Layer 1

OS:Construction,
  {3f9187b7-1707-449c-a2a3-ac47c8ec422a},  ! Handle
  000_Interior Floor,       ! Name
  {5ce3b2f0-944a-4aaa-882a-65e4a5b1a9ac},  ! Surface Rendering Name
  {722b72de-147b-45dd-8dab-5314012ce12a},  ! Layer 1
  {40c7c189-1cd3-4a67-a49c-64312221b963},  ! Layer 2
  {8e8067ea-3695-4135-97ba-71d670741a54};  ! Layer 3

OS:Construction,
  {6ebab105-c012-419c-8914-6dbaa62bfde0},  ! Handle
  000_Interior Partition,   ! Name
  {e035c062-8397-4c6f-ba24-75e284efdab1},  ! Surface Rendering Name
  {c7c50385-667f-49f0-af85-ab8b3790508c};  ! Layer 1

OS:Construction,
  {1f17b597-6de1-4331-ab4b-d5d27e653c43},  ! Handle
  000_Interior Wall,        ! Name
  {f2658ba3-8512-43ab-9e6b-8dd7ed17b992},  ! Surface Rendering Name
  {fd22c845-d9f7-4564-8bb8-3a6359854ddb},  ! Layer 1
  {9897d524-cdad-4602-b32e-95baa769bb18},  ! Layer 2
  {fd22c845-d9f7-4564-8bb8-3a6359854ddb};  ! Layer 3

OS:Construction,
  {1d6de043-fbf3-4504-8dbc-1c704fc33077},  ! Handle
  000_Interior Window,      ! Name
  {4f36d577-b51a-40e0-be6b-28953d97ac55},  ! Surface Rendering Name
  {6bea26eb-3440-4410-b862-e4aa66348c4d};  ! Layer 1

OS:Construction,
  {d8740864-07f4-459d-82bf-501604f68f05},  ! Handle
  ASHRAE_189.1-2009_ExtRoof_IEAD_ClimateZone 2-5,  ! Name
  {cab41f4a-14ea-4787-a482-5ebc2cc4ed95},  ! Surface Rendering Name
  {c092938a-8c94-4df9-8e82-d8ba959850bd},  ! Layer 1
  {6687ad69-8379-47bc-8f0b-5803c6ced09a},  ! Layer 2
  {47db7780-ec78-47da-a59f-3c6542a846a3};  ! Layer 3

OS:Construction,
  {71f3630b-18bc-4f00-9182-b94f3e19ffdf},  ! Handle
  ASHRAE_189.1-2009_ExtWall_SteelFrame_ClimateZone 4-8,  ! Name
  {fcd42ea5-5a86-4217-8f15-faf952d8dfe7},  ! Surface Rendering Name
  {41910265-4c48-401b-a08b-cbe0d7e9d41d},  ! Layer 1
  {5bbfede2-e199-4d8e-803b-c0e7b5bf7041},  ! Layer 2
  {1a881a88-9db3-4cdf-ac65-5b7f735b2cd9};  ! Layer 3

OS:Construction,
  {02f334bb-97ea-4334-b48b-7ef852bde05c},  ! Handle
  ASHRAE_189.1-2009_ExtWindow_ClimateZone 4-5,  ! Name
  {0f36283b-f88c-4dde-bf97-6b71ab3c66e8},  ! Surface Rendering Name
  {b49c2133-7871-4494-ad3b-5ec9009d7afa};  ! Layer 1

OS:Construction,
  {8fc28538-e28e-45d1-9312-2f5df9c5901d},  ! Handle
  Air_Wall,                 ! Name
  {e6cdea1f-1502-4447-9d7a-8a113fa0ebba},  ! Surface Rendering Name
  {cc9e2ad6-7469-45ad-9ca4-b826a9dbaf1e};  ! Layer 1

OS:DefaultConstructionSet,
  {2fd5769d-e3eb-462e-a377-c01e2b7bf396},  ! Handle
  ASHRAE_189.1-2009_ClimateZone 4-5 (mdoff)_ConstSet,  ! Name
  {658f998a-0035-4d9c-b8b9-0082e903b4ce},  ! Default Exterior Surface Constructions Name
  {de3b1bb3-7b34-4a74-a6e0-2ae38830e609},  ! Default Interior Surface Constructions Name
  {33b4b5ce-97b9-4f3d-af3a-3bbbcdbae245},  ! Default Ground Contact Surface Constructions Name
  {78efdd17-b26a-46d6-ab8d-147a22579c1c},  ! Default Exterior SubSurface Constructions Name
  {2ad21690-6370-40d3-86b1-8fc2fb4f95c2},  ! Default Interior SubSurface Constructions Name
  {6ebab105-c012-419c-8914-6dbaa62bfde0},  ! Interior Partition Construction Name
  ,                         ! Space Shading Construction Name
  {34eac519-7e02-47d8-9e2e-112c2370d4f1},  ! Building Shading Construction Name
  ;                         ! Site Shading Construction Name

OS:DefaultScheduleSet,
  {eabc66dd-14cc-4835-a605-d1fbe6bff788},  ! Handle
  MediumOffice_Schedules,   ! Name
  ,                         ! Hours of Operation Schedule Name
  {d21f837f-305c-4ca1-a2f1-c2b9399c6d56},  ! Number of People Schedule Name
  {4b28dc17-bbc2-480e-92f2-4f7700560139},  ! People Activity Level Schedule Name
  {2b47b85d-7b55-4389-b53e-a8dcb0f10207},  ! Lighting Schedule Name
  {2a6e3e15-51c9-4592-98af-677d6468cbdf},  ! Electric Equipment Schedule Name
  ,                         ! Gas Equipment Schedule Name
  ,                         ! Hot Water Equipment Schedule Name
  {1e25c9c2-6b14-492c-9c14-e617c6a56470},  ! Infiltration Schedule Name
  ,                         ! Steam Equipment Schedule Name
  ;                         ! Other Equipment Schedule Name

OS:DefaultSubSurfaceConstructions,
  {2ad21690-6370-40d3-86b1-8fc2fb4f95c2},  ! Handle
  000_Interior_DefSubCons,  ! Name
  {1d6de043-fbf3-4504-8dbc-1c704fc33077},  ! Fixed Window Construction Name
  {1d6de043-fbf3-4504-8dbc-1c704fc33077},  ! Operable Window Construction Name
  {34eac519-7e02-47d8-9e2e-112c2370d4f1},  ! Door Construction Name
  {2bdab215-2704-49c5-a44b-5026de522431},  ! Glass Door Construction Name
  ,                         ! Overhead Door Construction Name
  {2bdab215-2704-49c5-a44b-5026de522431},  ! Skylight Construction Name
  {1d6de043-fbf3-4504-8dbc-1c704fc33077},  ! Tubular Daylight Dome Construction Name
  {1d6de043-fbf3-4504-8dbc-1c704fc33077};  ! Tubular Daylight Diffuser Construction Name

OS:DefaultSubSurfaceConstructions,
  {78efdd17-b26a-46d6-ab8d-147a22579c1c},  ! Handle
  ASHRAE_189.1-2009_ClimateZone 4-5 (mdoff)_Exterior_DefSubCons,  ! Name
  {02f334bb-97ea-4334-b48b-7ef852bde05c},  ! Fixed Window Construction Name
  {02f334bb-97ea-4334-b48b-7ef852bde05c},  ! Operable Window Construction Name
  {1067d8c8-7098-415c-b705-5cf692090bcb},  ! Door Construction Name
  {2bdab215-2704-49c5-a44b-5026de522431},  ! Glass Door Construction Name
  ,                         ! Overhead Door Construction Name
  {2bdab215-2704-49c5-a44b-5026de522431},  ! Skylight Construction Name
  {1d6de043-fbf3-4504-8dbc-1c704fc33077},  ! Tubular Daylight Dome Construction Name
  {1d6de043-fbf3-4504-8dbc-1c704fc33077};  ! Tubular Daylight Diffuser Construction Name

OS:DefaultSurfaceConstructions,
  {33b4b5ce-97b9-4f3d-af3a-3bbbcdbae245},  ! Handle
  000_Ground_DefSurfCons,   ! Name
  {1ecb61a8-f0d8-403f-86b3-0cf87ec5a8a5},  ! Floor Construction Name
  {1ecb61a8-f0d8-403f-86b3-0cf87ec5a8a5},  ! Wall Construction Name
  {1ecb61a8-f0d8-403f-86b3-0cf87ec5a8a5};  ! Roof Ceiling Construction Name

OS:DefaultSurfaceConstructions,
  {de3b1bb3-7b34-4a74-a6e0-2ae38830e609},  ! Handle
  000_Interior_DefSurfCons,  ! Name
  {3f9187b7-1707-449c-a2a3-ac47c8ec422a},  ! Floor Construction Name
  {1f17b597-6de1-4331-ab4b-d5d27e653c43},  ! Wall Construction Name
  {ee147483-238a-4ff3-b5d1-3cad8e7ebfd3};  ! Roof Ceiling Construction Name

OS:DefaultSurfaceConstructions,
  {658f998a-0035-4d9c-b8b9-0082e903b4ce},  ! Handle
  ASHRAE_189.1-2009_ClimateZone 4-5 (mdoff)_Exterior_DefSurfCons,  ! Name
  {1ecb61a8-f0d8-403f-86b3-0cf87ec5a8a5},  ! Floor Construction Name
  {71f3630b-18bc-4f00-9182-b94f3e19ffdf},  ! Wall Construction Name
  {d8740864-07f4-459d-82bf-501604f68f05};  ! Roof Ceiling Construction Name

OS:ElectricEquipment,
  {09c2aa70-e90f-40fd-8f90-68daacc302ad},  ! Handle
  ASHRAE_189.1-2009_ClimateZone 4-8_MediumOffice_ElecInst,  ! Name
  {55e55a71-e8bb-4cf9-804d-fc2abd650bec},  ! Electric Equipment Definition Name
  {cd105d9d-4b8f-418f-b7f9-95673d78e6d9},  ! Space or SpaceType Name
  ,                         ! Schedule Name
  ,                         ! Multiplier
  ElectricEquipment;        ! End-Use Subcategory

OS:ElectricEquipment:Definition,
  {55e55a71-e8bb-4cf9-804d-fc2abd650bec},  ! Handle
  ASHRAE_189.1-2009_ClimateZone 4-8_MediumOffice_ElecDef,  ! Name
  Watts/Area,               ! Design Level Calculation Method
  0,                        ! Design Level
  5.8125141276385044,       ! Watts per Space Floor Area
  ,                         ! Watts per Person
  ,                         ! Fraction Latent
  ,                         ! Fraction Radiant
  ;                         ! Fraction Lost

OS:Facility,
  {77309da2-2d49-4f50-a081-532d444389e8};  ! Handle

OS:Lights,
  {b8176fd9-a070-4e28-a883-99d771edee6f},  ! Handle
  ASHRAE_189.1-2009_ClimateZone 4-8_MediumOffice_LightsInst,  ! Name
  {09e4332a-0ca4-4888-85f7-565a77f0ef57},  ! Lights Definition Name
  {cd105d9d-4b8f-418f-b7f9-95673d78e6d9},  ! Space or SpaceType Name
  ,                         ! Schedule Name
  ,                         ! Fraction Replaceable
  ,                         ! Multiplier
  Lights;                   ! End-Use Subcategory

OS:Lights:Definition,
  {09e4332a-0ca4-4888-85f7-565a77f0ef57},  ! Handle
  ASHRAE_189.1-2009_ClimateZone 4-8_MediumOffice_LightsDef,  ! Name
  Watts/Area,               ! Design Level Calculation Method
  0,                        ! Lighting Level
  9.687523546064174,        ! Watts per Space Floor Area
  ,                         ! Watts per Person
  ,                         ! Fraction Radiant
  ,                         ! Fraction Visible
  ,                         ! Return Air Fraction
  ,                         ! Return Air Fraction Calculated from Plenum Temperature
  ,                         ! Return Air Fraction Function of Plenum Temperature Coefficient 1
  ;                         ! Return Air Fraction Function of Plenum Temperature Coefficient 2

OS:Material,
  {c222c8d9-393f-48b1-81be-0db998153666},  ! Handle
  000_F08 Metal surface,    ! Name
  Smooth,                   ! Roughness
  0.00080000000000000004,   ! Thickness
  45.280000000000001,       ! Conductivity
  7824,                     ! Density
  500,                      ! Specific Heat
  ,                         ! Thermal Absorptance
  ,                         ! Solar Absorptance
  ;                         ! Visible Absorptance

OS:Material,
  {722b72de-147b-45dd-8dab-5314012ce12a},  ! Handle
  000_F16 Acoustic tile,    ! Name
  MediumSmooth,             ! Roughness
  0.019099999999999999,     ! Thickness
  0.059999999999999998,     ! Conductivity
  368,                      ! Density
  590;                      ! Specific Heat

OS:Material,
  {fd22c845-d9f7-4564-8bb8-3a6359854ddb},  ! Handle
  000_G01a 19mm gypsum board,  ! Name
  MediumSmooth,             ! Roughness
  0.019,                    ! Thickness
  0.16,                     ! Conductivity
  800,                      ! Density
  1090;                     ! Specific Heat

OS:Material,
  {c7c50385-667f-49f0-af85-ab8b3790508c},  ! Handle
  000_G05 25mm wood,        ! Name
  MediumSmooth,             ! Roughness
  0.025399999999999999,     ! Thickness
  0.14999999999999999,      ! Conductivity
  608,                      ! Density
  1630,                     ! Specific Heat
  ,                         ! Thermal Absorptance
  ,                         ! Solar Absorptance
  ;                         ! Visible Absorptance

OS:Material,
  {96fc49cb-4b17-470e-ada6-57184250f359},  ! Handle
  000_I01 25mm insulation board,  ! Name
  MediumRough,              ! Roughness
  0.025399999999999999,     ! Thickness
  0.029999999999999999,     ! Conductivity
  43,                       ! Density
  1210,                     ! Specific Heat
  ,                         ! Thermal Absorptance
  ,                         ! Solar Absorptance
  ;                         ! Visible Absorptance

OS:Material,
  {8e8067ea-3695-4135-97ba-71d670741a54},  ! Handle
  000_M11 100mm lightweight concrete,  ! Name
  MediumRough,              ! Roughness
  0.1016,                   ! Thickness
  0.53000000000000003,      ! Conductivity
  1280,                     ! Density
  840,                      ! Specific Heat
  ,                         ! Thermal Absorptance
  ,                         ! Solar Absorptance
  ;                         ! Visible Absorptance

OS:Material,
  {1a881a88-9db3-4cdf-ac65-5b7f735b2cd9},  ! Handle
  1/2IN Gypsum,             ! Name
  Smooth,                   ! Roughness
  0.012699999999999999,     ! Thickness
  0.16,                     ! Conductivity
  784.89999999999998,       ! Density
  830,                      ! Specific Heat
  0.90000000000000002,      ! Thermal Absorptance
  0.92000000000000004,      ! Solar Absorptance
  0.92000000000000004;      ! Visible Absorptance

OS:Material,
  {28f8a956-3cbd-469e-ba89-20eee61cc3e8},  ! Handle
  MAT-CC05 4 HW CONCRETE,   ! Name
  Rough,                    ! Roughness
  0.1016,                   ! Thickness
  1.3109999999999999,       ! Conductivity
  2240,                     ! Density
  836.79999999999995,       ! Specific Heat
  0.90000000000000002,      ! Thermal Absorptance
  0.69999999999999996,      ! Solar Absorptance
  0.69999999999999996;      ! Visible Absorptance

OS:Material,
  {47db7780-ec78-47da-a59f-3c6542a846a3},  ! Handle
  Metal Decking,            ! Name
  MediumSmooth,             ! Roughness
  0.0015,                   ! Thickness
  45.006,                   ! Conductivity
  7680,                     ! Density
  418.39999999999998,       ! Specific Heat
  0.90000000000000002,      ! Thermal Absorptance
  0.69999999999999996,      ! Solar Absorptance
  0.29999999999999999;      ! Visible Absorptance

OS:Material,
  {6687ad69-8379-47bc-8f0b-5803c6ced09a},  ! Handle
  Roof Insulation [21],     ! Name
  MediumRough,              ! Roughness
  0.21049999999999999,      ! Thickness
  0.049000000000000002,     ! Conductivity
  265,                      ! Density
  836.79999999999995,       ! Specific Heat
  0.90000000000000002,      ! Thermal Absorptance
  0.69999999999999996,      ! Solar Absorptance
  0.69999999999999996;      ! Visible Absorptance

OS:Material,
  {c092938a-8c94-4df9-8e82-d8ba959850bd},  ! Handle
  Roof Membrane,            ! Name
  VeryRough,                ! Roughness
  0.0094999999999999998,    ! Thickness
  0.16,                     ! Conductivity
  1121.29,                  ! Density
  1460,                     ! Specific Heat
  0.90000000000000002,      ! Thermal Absorptance
  0.69999999999999996,      ! Solar Absorptance
  0.69999999999999996;      ! Visible Absorptance

OS:Material,
  {5bbfede2-e199-4d8e-803b-c0e7b5bf7041},  ! Handle
  Wall Insulation [39],     ! Name
  MediumRough,              ! Roughness
  0.11840000000000001,      ! Thickness
  0.044999999999999998,     ! Conductivity
  265,                      ! Density
  836.79999999999995,       ! Specific Heat
  0.90000000000000002,      ! Thermal Absorptance
  0.69999999999999996,      ! Solar Absorptance
  0.69999999999999996;      ! Visible Absorptance

OS:Material:AirGap,
  {9897d524-cdad-4602-b32e-95baa769bb18},  ! Handle
  000_F04 Wall air space resistance,  ! Name
  0.14999999999999999;      ! Thermal Resistance

OS:Material:AirGap,
  {40c7c189-1cd3-4a67-a49c-64312221b963},  ! Handle
  000_F05 Ceiling air space resistance,  ! Name
  0.17999999999999999;      ! Thermal Resistance

OS:Material:AirWall,
  {cc9e2ad6-7469-45ad-9ca4-b826a9dbaf1e},  ! Handle
  OS:Material:AirWall 1;    ! Name

OS:Material:NoMass,
  {31704cc7-75a1-4aec-b68e-2338ef6f84cc},  ! Handle
  CP02 CARPET PAD,          ! Name
  VeryRough,                ! Roughness
  0.2165,                   ! Thermal Resistance
  0.90000000000000002,      ! Thermal Absorptance
  0.69999999999999996,      ! Solar Absorptance
  0.80000000000000004;      ! Visible Absorptance

OS:Material:NoMass,
  {41910265-4c48-401b-a08b-cbe0d7e9d41d},  ! Handle
  MAT-SHEATH,               ! Name
  Rough,                    ! Roughness
  0.36259999999999998,      ! Thermal Resistance
  0.90000000000000002,      ! Thermal Absorptance
  0.69999999999999996,      ! Solar Absorptance
  0.69999999999999996;      ! Visible Absorptance

OS:Output:Variable,
  {1aa399f0-dc7c-4ced-ac2e-1ee64a132f74},  ! Handle
  hourly* - Zone/Sys Sensible Heating Rate,  ! Name
  *,                        ! Key Value
  Zone/Sys Sensible Heating Rate,  ! Variable Name
  hourly;                   ! Reporting Frequency

OS:Output:Variable,
  {d69aea35-6525-4f46-ae43-a7b06897a2de},  ! Handle
  hourly* - Zone/Sys Sensible Cooling Rate,  ! Name
  *,                        ! Key Value
  Zone/Sys Sensible Cooling Rate,  ! Variable Name
  hourly;                   ! Reporting Frequency

OS:People,
  {70c431ae-869f-4d8f-8ef4-9583813294d5},  ! Handle
  ASHRAE_189.1-2009_ClimateZone 4-8_MediumOffice_PeopInst,  ! Name
  {aa7d5b58-613e-42e0-b80b-cca6b4bcd8ee},  ! People Definition Name
  {cd105d9d-4b8f-418f-b7f9-95673d78e6d9},  ! Space or SpaceType Name
  ,                         ! Number of People Schedule Name
  ,                         ! Activity Level Schedule Name
  ,                         ! Surface Name/Angle Factor List Name
  ,                         ! Work Efficiency Schedule Name
  ,                         ! Clothing Insulation Schedule Name
  ,                         ! Air Velocity Schedule Name
  ;                         ! Multiplier

OS:People:Definition,
  {aa7d5b58-613e-42e0-b80b-cca6b4bcd8ee},  ! Handle
  MediumOffice_PeopDef,     ! Name
  People/Area,              ! Number of People Calculation Method
  0,                        ! Number of People
  0.053819575255912078,     ! People per Space Floor Area
  ,                         ! Space Floor Area per Person
  0.3,                      ! Fraction Radiant
  ,                         ! Sensible Heat Fraction
  ,                         ! Carbon Dioxide Generation Rate {m3/s-W}
  ,                         ! Enable ASHRAE 55 Comfort Warnings
  ;                         ! Mean Radiant Temperature Calculation Type

OS:Rendering:Color,
  {9f0f8441-86d5-48a5-96e6-815567922547},  ! Handle
  000_ExtSlabCarpet_4in_ClimateZone 1-8_Color,  ! Name
  198.9,                    ! Rendering Red Value
  0.0,                      ! Rendering Green Value
  0.0;                      ! Rendering Blue Value

OS:Rendering:Color,
  {cbd78b62-ced2-4b5f-b658-8afe2015a423},  ! Handle
  000_Exterior Door_Color,  ! Name
  124.3125,                 ! Rendering Red Value
  74.5875,                  ! Rendering Green Value
  89.505;                   ! Rendering Blue Value

OS:Rendering:Color,
  {95848b4e-7874-4a36-8257-55c715307230},  ! Handle
  000_Exterior Window_Color,  ! Name
  198.9,                    ! Rendering Red Value
  0.0,                      ! Rendering Green Value
  59.6699999999999,         ! Rendering Blue Value
  ;                         ! Rendering Alpha Value

OS:Rendering:Color,
  {6a126cc3-0ae4-4e83-adc6-b6f7e8099508},  ! Handle
  000_Interior Ceiling_Color,  ! Name
  219.096,                  ! Rendering Red Value
  142.8,                    ! Rendering Green Value
  255.0;                    ! Rendering Blue Value

OS:Rendering:Color,
  {cbd44e1c-6d4e-4ba8-8dea-0fe4a518d313},  ! Handle
  000_Interior Door_Color,  ! Name
  168.606,                  ! Rendering Red Value
  255.0,                    ! Rendering Green Value
  142.8;                    ! Rendering Blue Value

OS:Rendering:Color,
  {5ce3b2f0-944a-4aaa-882a-65e4a5b1a9ac},  ! Handle
  000_Interior Floor_Color,  ! Name
  255.0,                    ! Rendering Red Value
  142.8,                    ! Rendering Green Value
  142.8;                    ! Rendering Blue Value

OS:Rendering:Color,
  {e035c062-8397-4c6f-ba24-75e284efdab1},  ! Handle
  000_Interior Partition_Color,  ! Name
  165.24,                   ! Rendering Red Value
  142.8,                    ! Rendering Green Value
  255.0;                    ! Rendering Blue Value

OS:Rendering:Color,
  {f2658ba3-8512-43ab-9e6b-8dd7ed17b992},  ! Handle
  000_Interior Wall_Color,  ! Name
  142.8,                    ! Rendering Red Value
  201.144,                  ! Rendering Green Value
  255.0;                    ! Rendering Blue Value

OS:Rendering:Color,
  {4f36d577-b51a-40e0-be6b-28953d97ac55},  ! Handle
  000_Interior Window_Color,  ! Name
  235.926,                  ! Rendering Red Value
  255.0,                    ! Rendering Green Value
  142.8;                    ! Rendering Blue Value

OS:Rendering:Color,
  {a992b2bb-4bcd-4b53-b1d6-ac73347b5d67},  ! Handle
  ASHRAE_189.1-2009_ClimateZone 4-8_MediumOffice_Color,  ! Name
  120.36,                   ! Rendering Red Value
  236.64,                   ! Rendering Green Value
  201.756;                  ! Rendering Blue Value

OS:Rendering:Color,
  {cab41f4a-14ea-4787-a482-5ebc2cc4ed95},  ! Handle
  ASHRAE_189.1-2009_ExtRoof_IEAD_ClimateZone 2-5_Color,  ! Name
  150.1695,                 ! Rendering Red Value
  14.9175,                  ! Rendering Green Value
  183.9825,                 ! Rendering Blue Value
  ;                         ! Rendering Alpha Value

OS:Rendering:Color,
  {fcd42ea5-5a86-4217-8f15-faf952d8dfe7},  ! Handle
  ASHRAE_189.1-2009_ExtWall_SteelFrame_ClimateZone 4-8_Color,  ! Name
  21.1139999999998,         ! Rendering Red Value
  17.2125,                  ! Rendering Green Value
  212.2875;                 ! Rendering Blue Value

OS:Rendering:Color,
  {0f36283b-f88c-4dde-bf97-6b71ab3c66e8},  ! Handle
  ASHRAE_189.1-2009_ExtWindow_ClimateZone 4-5_Color,  ! Name
  109.6653,                 ! Rendering Red Value
  238.935,                  ! Rendering Green Value
  56.865,                   ! Rendering Blue Value
  ;                         ! Rendering Alpha Value

OS:Rendering:Color,
  {e6cdea1f-1502-4447-9d7a-8a113fa0ebba},  ! Handle
  Air_Wall_Color,           ! Name
  255,                      ! Rendering Red Value
  69,                       ! Rendering Green Value
  0,                        ! Rendering Blue Value
  ;                         ! Rendering Alpha Value

OS:Rendering:Color,
  {a8e6e5cc-1336-4c5b-83de-dae9c740750f},  ! Handle
  Empty Space Type Color,   ! Name
  128.0,                    ! Rendering Red Value
  128.0,                    ! Rendering Green Value
  128.0;                    ! Rendering Blue Value

OS:RunPeriodControl:DaylightSavingTime,
  {1e4938df-1f85-48a6-bdc5-4af15daf9126},  ! Handle
  2nd Sunday in March,      ! Start Date
  1st Sunday in November;   ! End Date

OS:RunPeriodControl:SpecialDays,
  {c34aeafa-9296-4094-956f-125597b0b75f},  ! Handle
  Christmas,                ! Name
  December 25,              ! Start Date
  1,                        ! Duration
  Holiday;                  ! Special Day Type

OS:RunPeriodControl:SpecialDays,
  {c63644bd-3891-40a9-9a78-09145112d592},  ! Handle
  Columbus Day,             ! Name
  2nd Monday in October,    ! Start Date
  1,                        ! Duration
  Holiday;                  ! Special Day Type

OS:RunPeriodControl:SpecialDays,
  {5f2e4140-0af4-4113-bcc9-2fc14a0c26fc},  ! Handle
  Independence Day,         ! Name
  July 4,                   ! Start Date
  1,                        ! Duration
  Holiday;                  ! Special Day Type

OS:RunPeriodControl:SpecialDays,
  {673af3ec-cbfb-4a5e-b0b5-714381d454c6},  ! Handle
  Labor Day,                ! Name
  1st Monday in September,  ! Start Date
  1,                        ! Duration
  Holiday;                  ! Special Day Type

OS:RunPeriodControl:SpecialDays,
  {c76be8a1-cb74-4334-8132-c9c4500372a4},  ! Handle
  MLK Day,                  ! Name
  3rd Monday in January,    ! Start Date
  1,                        ! Duration
  Holiday;                  ! Special Day Type

OS:RunPeriodControl:SpecialDays,
  {1cdfe06a-cda4-48a1-84be-e095fd46cba9},  ! Handle
  Memorial Day,             ! Name
  Last Monday in May,       ! Start Date
  1,                        ! Duration
  Holiday;                  ! Special Day Type

OS:RunPeriodControl:SpecialDays,
  {66783fa3-5ef8-405d-a794-db4311c10459},  ! Handle
  New Years Day,            ! Name
  January 1,                ! Start Date
  1,                        ! Duration
  Holiday;                  ! Special Day Type

OS:RunPeriodControl:SpecialDays,
  {50bb5201-3989-4bf0-b24a-abaa9a5223d4},  ! Handle
  Presidents Day,           ! Name
  3rd Monday in February,   ! Start Date
  1,                        ! Duration
  Holiday;                  ! Special Day Type

OS:RunPeriodControl:SpecialDays,
  {ca5fcfeb-6ffd-4f8e-b4bb-2861a6c49869},  ! Handle
  Thanksgiving,             ! Name
  4th Thursday in November,  ! Start Date
  1,                        ! Duration
  Holiday;                  ! Special Day Type

OS:RunPeriodControl:SpecialDays,
  {126923df-2096-4a0c-826d-51cab9b6d091},  ! Handle
  Veterans Day,             ! Name
  November 11,              ! Start Date
  1,                        ! Duration
  Holiday;                  ! Special Day Type

OS:ScheduleTypeLimits,
  {ddc13474-22dc-48e9-915e-ab2bdd84fd23},  ! Handle
  Any Number,               ! Name
  ,                         ! Lower Limit Value {BasedOnField A3}
  ,                         ! Upper Limit Value {BasedOnField A3}
  ,                         ! Numeric Type
  ;                         ! Unit Type

OS:ScheduleTypeLimits,
  {286984c5-929b-40a0-89ed-18d3a454a021},  ! Handle
  Control Type,             ! Name
  0,                        ! Lower Limit Value
  4,                        ! Upper Limit Value
  DISCRETE;                 ! Numeric Type

OS:ScheduleTypeLimits,
  {aded1836-36e3-4b28-b0f8-58cd683cbc01},  ! Handle
  Fraction,                 ! Name
  0,                        ! Lower Limit Value
  1,                        ! Upper Limit Value
  CONTINUOUS;               ! Numeric Type

OS:ScheduleTypeLimits,
  {7ba834a6-277b-48a5-9917-fce4cec1546e},  ! Handle
  On/Off,                   ! Name
  0,                        ! Lower Limit Value
  1,                        ! Upper Limit Value
  DISCRETE;                 ! Numeric Type

OS:ScheduleTypeLimits,
  {fa165652-18a9-4917-a1e8-a67e4490e219},  ! Handle
  Temperature,              ! Name
  -60,                      ! Lower Limit Value
  200,                      ! Upper Limit Value
  CONTINUOUS,               ! Numeric Type
  ;                         ! Unit Type

OS:SimulationControl,
  {993a8fc5-3875-4c9a-a1a8-85e5a9e3f510},  ! Handle
  No,                       ! Do Zone Sizing Calculation
  No,                       ! Do System Sizing Calculation
  No,                       ! Do Plant Sizing Calculation
  No,                       ! Run Simulation for Sizing Periods
  Yes,                      ! Run Simulation for Weather File Run Periods
  0.040000000000000001,     ! Loads Convergence Tolerance Value
  0.40000000000000002,      ! Temperature Convergence Tolerance Value
  FullExterior,             ! Solar Distribution
  25,                       ! Maximum Number of Warmup Days
  ;                         ! Minimum Number of Warmup Days

OS:SpaceInfiltration:DesignFlowRate,
  {f8f89ae6-7b35-420b-83bb-c97536c0ec55},  ! Handle
  ASHRAE_189.1-2009_ClimateZone 4-8_MediumOffice_Infil,  ! Name
  {cd105d9d-4b8f-418f-b7f9-95673d78e6d9},  ! Space or SpaceType Name
  ,                         ! Schedule Name
  AirChanges/Hour,          ! Design Flow Rate Calculation Method
  0,                        ! Design Flow Rate
  ,                         ! Flow per Space Floor Area
  ,                         ! Flow per Exterior Surface Area
  0.14999999999999999,      ! Air Changes per Hour
  ,                         ! Constant Term Coefficient
  ,                         ! Temperature Term Coefficient
  ,                         ! Velocity Term Coefficient
  ;                         ! Velocity Squared Term Coefficient

OS:SpaceType,
  {cd105d9d-4b8f-418f-b7f9-95673d78e6d9},  ! Handle
  ASHRAE_189.1-2009_ClimateZone 4-8_MediumOffice,  ! Name
  ,                         ! Default Construction Set Name
  {eabc66dd-14cc-4835-a605-d1fbe6bff788},  ! Default Schedule Set Name
  {a992b2bb-4bcd-4b53-b1d6-ac73347b5d67},  ! Group Rendering Name
  {131a0dd1-d1cb-4754-bda9-83aa18e79056};  ! Design Specification Outdoor Air Object Name

OS:SpaceType,
  {e35a1cb4-6de4-4791-ba61-3c1aca419473},  ! Handle
  Empty Space Type,         ! Name
  ,                         ! Default Construction Set Name