!IDD_Version 0.4.3
! *****************************************************************************
! This file is the Input Data Dictionary (IDD) for OpenStudio Model. 
!
! Please see the EnergyPlus IDD Header for data formatting information. In 
! addition to the syntax listed there, we add the following commands for 
! inserting subsets of other IDD files:
!
! \include-file      Name of an IDD file to include in this IDD file. Inclusion
!                    means that a collection of IDF objects conforming to this 
!                    IDD must actually conform to the union of this IDD and the
!                    included IDD, minus any removed objects.
!
! \remove-object     Name of an object in an included IDD file that is to be 
!                    ignored, that is, not subsumed into this IDD.
!
! **************************************************************************

\include-file EnergyPlus

\remove-object Version

\remove-object GlobalGeometryRules

\remove-object Wall:Detailed

\remove-object RoofCeiling:Detailed

\remove-object Floor:Detailed

\remove-object Wall:Exterior

\remove-object Wall:Adiabatic

\remove-object Wall:Underground

\remove-object Wall:Interzone

\remove-object Roof

\remove-object Ceiling:Adiabatic

\remove-object Ceiling:Interzone

\remove-object Floor:GroundContact

\remove-object Floor:Adiabatic

\remove-object Floor:Interzone

\remove-object Window

\remove-object Door

\remove-object GlazedDoor

\remove-object Window:Interzone

\remove-object Door:Interzone

\remove-object GlazedDoor:Interzone

\remove-object Shading:Site

\remove-object Shading:Building

\remove-object Shading:Site:Detailed

\remove-object Shading:Building:Detailed

\remove-object Shading:Overhang

\remove-object Shading:Overhang:Projection

\remove-object Shading:Fin

\remove-object Shading:Fin:Projection

\remove-object Shading:Zone:Detailed

\remove-object DaylightingDevice:Shelf

\remove-object Parametric:SetValueForRun

\remove-object Parametric:Logic

\remove-object Parametric:RunControl

\remove-object Parametric:FileNameSuffix

\remove-object Output:Table:SummaryReports

\remove-object OutputControl:Table:Style

\remove-object Output:SQLite


\group OpenStudio Model

OS:Version,
      \unique-object
      \required-object
      \format singleLine
  A1; \field Version Identifier
      \required-field
       
OS:Facility;
       \unique-object
       \required-object

OS:WeatherFile,
       \unique-object
       \min-fields 8
       \memo WeatherFile object uniquely identifies a weather file for lookup in a database
  A1,  \field City
       \required-field
       \type alpha
  A2,  \field State Province Region
       \required-field
       \type alpha
  A3,  \field Country
       \required-field
       \type alpha  
  A4,  \field Data Source
       \required-field
       \type alpha  
  A5,  \field WMO Number
       \required-field
       \type alpha  
  N1,  \field Latitude
       \required-field
       \units deg
       \minimum -90.0
       \maximum +90.0
       \note + is North, - is South, degree minutes represented in decimal (i.e. 30 minutes is .5)
       \type real
  N2,  \field Longitude
       \required-field
       \units deg
       \minimum -180.0
       \maximum +180.0
       \note - is West, + is East, degree minutes represented in decimal (i.e. 30 minutes is .5)
       \type real
  N3,  \field Time Zone
       \required-field
       \units hr
       \minimum -12.0
       \maximum +14.0
       \note  Time relative to GMT. Decimal hours.
       \note basic these limits on the WorldTimeZone Map (2003)
       \type real
  N4,  \field Elevation
       \units m
       \minimum -300.0
       \maximum< 8900.0
       \default 0.0
       \type real      
  A6,  \field Url
       \type alpha       
  A7;  \field Checksum
       \type alpha

OS:DefaultConstructionSet,
        \unique-object
        \memo Specifies construction set to be used as the default for new surfaces and sub-surfaces.
  A1;  \field Construction Set Name
        \required-field
        \type object-list
        \object-list ConstructionSetNames
       
OS:ConstructionSet,
        \memo ConstructionSet specifies constructions for Surfaces and SubSurfaces based on
        \memo classification.  An input file can contain several ConstructionSet objects, these
        \memo objects may be 'applied' to a selection of objects by an interface.
  A1, \field Name
        \required-field
        \type alpha
        \reference ConstructionSetNames
  A2, \field Exterior Floor
        \note Match with a construction in this input file or leave blank to indicate no change
        \type object-list
        \object-list ConstructionNames
  A3, \field Exterior Wall
        \note Match with a construction in this input file or leave blank to indicate no change
        \type object-list
        \object-list ConstructionNames       
  A4, \field Exterior Roof
        \note Match with a construction in this input file or leave blank to indicate no change
        \type object-list
        \object-list ConstructionNames
  A5, \field Exterior Window
        \note Match with a construction in this input file or leave blank to indicate no change
        \type object-list
        \object-list ConstructionNames      
  A6, \field Exterior Door
        \note Match with a construction in this input file or leave blank to indicate no change
        \type object-list
        \object-list ConstructionNames
  A7, \field Interior Floor
        \note Match with a construction in this input file or leave blank to indicate no change
        \type object-list
        \object-list ConstructionNames
  A8, \field Interior Wall
        \note Match with a construction in this input file or leave blank to indicate no change
        \type object-list
        \object-list ConstructionNames       
  A9, \field Interior Ceiling
        \note Match with a construction in this input file or leave blank to indicate no change
        \type object-list
        \object-list ConstructionNames   
  A10,\field Interior Partition
        \note Match with a construction in this input file or leave blank to indicate no change
        \type object-list
        \object-list ConstructionNames
  A11,\field Interior Window
        \note Match with a construction in this input file or leave blank to indicate no change
        \type object-list
        \object-list ConstructionNames      
  A12,\field Interior Door
        \note Match with a construction in this input file or leave blank to indicate no change
        \type object-list
        \object-list ConstructionNames
  A13,\field Glass Door
        \note Match with a construction in this input file or leave blank to indicate no change
        \type object-list
        \object-list ConstructionNames
  A14,\field Skylight
        \note Match with a construction in this input file or leave blank to indicate no change
        \type object-list
        \object-list ConstructionNames
  A15,\field Tubular Daylight Dome
        \note Match with a construction in this input file or leave blank to indicate no change
        \type object-list
        \object-list ConstructionNames
  A16;\field Tubular Daylight Diffuser
        \note Match with a construction in this input file or leave blank to indicate no change
        \type object-list
        \object-list ConstructionNames


OS:ZoneLoads,       
        \memo Simplified description of loads for a zone, can be applied to a zone through an interface.
  A1, \field Name
        \required-field
        \type alpha
        \reference ZoneLoadsNames,
  N1 , \field People per Zone Floor Area
        \required-field
        \type real
        \minimum 0
        \units person/m2
  A2 , \field Number of People Schedule Name
        \required-field
        \type object-list
        \object-list ScheduleNames
  A3 , \field People Activity Level Schedule Name
        \required-field
        \note Note that W has to be converted to mets in TC routine
        \type object-list
        \note units in schedule are W/person
        \object-list ScheduleNames
  N2 , \field Lighting Watts per Zone Floor Area
        \required-field
        \type real
        \minimum 0
        \units W/m2
        \ip-units W/ft2
  A4 , \field Lighting Schedule Name
        \required-field
        \type object-list
        \object-list ScheduleNames
  N3 , \field Electric Equipment Watts per Zone Floor Area
        \required-field
        \type real
        \minimum 0
        \units W/m2
        \ip-units W/ft2
  A5 , \field Electric Equipment Schedule Name
        \required-field
        \type object-list
        \object-list ScheduleNames
  N4 , \field Gas Equipment Watts per Zone Floor Area
        \required-field
        \type real
        \minimum 0
        \units W/m2
  A6 , \field Gas Equipment Schedule Name
        \required-field
        \type object-list
        \object-list ScheduleNames
  N5 , \field Ventilation Flow Rate per Person
        \required-field
        \type real
        \minimum 0
        \units m3/s-person
  A7 , \field Ventilation per Person Schedule Name
        \required-field
        \type object-list
        \object-list ScheduleNames
  N6 , \field Ventilation Flow Rate per Zone Floor Area
        \required-field
        \type real
        \minimum 0
        \units m3/s-m2
  A8 , \field Ventilation per Floor Area Schedule Name
        \required-field
        \type object-list
        \object-list ScheduleNames
  N7 , \field Infiltration Air Changes per Hour
        \required-field
        \type real
        \minimum 0
  A9 ;\field Infiltration Schedule Name
        \required-field
        \type object-list
        \object-list ScheduleNames

OS:ShadingSurfaceGroup,
  A1, \field Name
      \required-field
      \type alpha
      \reference ShadingSurfaceGroupNames
  A2, \field Shading Surface Type
      \required-field
      \type choice
      \key Site
      \key Building
      \key Zone
  A3, \field Zone Name
      \note Required if Shading Surface Type is Zone
      \type object-list
      \object-list ZoneNames
  N1, \field Direction of Relative North
      \units deg
      \type real
      \default 0
  N2, \field X Origin
      \units m
      \type real
      \default 0
  N3, \field Y Origin
      \units m
      \type real
      \default 0
  N4; \field Z Origin
      \units m
      \type real
      \default 0      

OS:Shading:Detailed,
       \extensible:3 -- duplicate last set of x,y,z coordinates, renumbering please (and changing z terminator to , for all but last)
       \min-fields 13
       \format vertices
  A1 , \field Name
       \required-field
       \type alpha
       \reference AttachedShadingSurfNames
       \reference AllShadingAndHTSurfNames
       \reference AllShadingSurfNames
  A2 , \field Shading Surface Group Name
       \required-field
       \type object-list
       \object-list ShadingSurfaceGroupNames
  A3,  \field Transmittance Schedule Name
       \note Transmittance schedule for the shading device, defaults to zero (always opaque)
       \type object-list
       \object-list ScheduleNames
  N1 , \field Number of Vertices
       \note shown with 6 vertex coordinates -- extensible object
       \autocalculatable
       \default autocalculate
       \minimum 3
       \note vertices are given in GlobalGeometryRules coordinates -- if relative, all surface coordinates
       \note are "relative" to the Zone Origin.  if world, then building and zone origins are used
       \note for some internal calculations, but all coordinates are given in an "absolute" system.
  N2,  \field Vertex 1 X-coordinate
       \begin-extensible
       \units m
       \type real
  N3 , \field Vertex 1 Y-coordinate
       \units m
       \type real
  N4 ; \field Vertex 1 Z-coordinate
       \units m
       \type real
       
OS:InteriorPartitionSurfaceGroup,
  A1, \field Name
      \required-field
      \type alpha
      \reference InteriorPartitionSurfaceGroupNames
  A2, \field Zone Name
      \required-field
      \type object-list
      \object-list ZoneNames
  N1, \field Direction of Relative North
      \units deg
      \type real
      \default 0
  N2, \field X Origin
      \units m
      \type real
      \default 0
  N3, \field Y Origin
      \units m
      \type real
      \default 0
  N4; \field Z Origin
      \units m
      \type real
      \default 0
 
OS:InteriorPartitionSurface:Detailed,
       \extensible:3 
       \format vertices
  A1 , \field Name
       \required-field
       \type alpha
       \reference InteriorPartitionSurfaceNames
  A2 , \field Construction Name
       \type object-list
       \object-list ConstructionNames
  A3 , \field Interior Partition Surface Group Name
       \required-field
       \type object-list
       \object-list InteriorPartitionSurfaceGroupNames
  A4 , \field Convert to Internal Mass
       \type choice
       \key Yes
       \key No
       \default No
  N1 , \field Number of Vertices
       \autocalculatable
       \minimum 3
       \default autocalculate
  N2,  \field Vertex X-coordinate
       \begin-extensible
       \units m
       \type real
  N3 , \field Vertex Y-coordinate
       \units m
       \type real
  N4 ; \field Vertex Z-coordinate
       \units m
       \type real 

OS:DaylightingDevice:Shelf,
  A1 , \field Name
       \required-field
       \type alpha
  A2 , \field Window Name
       \required-field
       \type object-list
       \object-list SubSurfNames
  A3 , \field Inside Shelf Name
       \type object-list
       \object-list InteriorPartitionSurfaceNames
  A4 , \field Outside Shelf Name
       \note This must refer to a Zone level OS:Shading:Detailed object
       \type object-list
       \object-list AttachedShadingSurfNames
  N1 ; \field View Factor to Outside Shelf
       \type real
       \minimum 0.0
       \maximum 1.0

OS:PhotometricData:IESFile,
  A1 , \field Name
       \required-field
       \type alpha
       \reference PhotometricDataNames
  A2 , \field IES File Path
       \required-field  
       \note must be path to valid IES file
  N1 , \field Lighting Power
       \units W
       \type real
       \minimum 0
       \default 0
       \ip-units W    
  N2 , \field Fraction Radiant
       \type real
       \minimum 0.0
       \maximum 1.0
       \default 0
  N3 ; \field Fraction Visible
       \type real
       \minimum 0.0
       \maximum 1.0
       \default 0
       
OS:Luminaire,
   \memo Models an individual luminaire for use in lighting and energy simulation
   \min-fields 8
  A1 , \field Name
       \required-field
       \type alpha
       \reference LightsNames
  A2 , \field Zone Name
       \required-field
       \type object-list
       \object-list ZoneNames
  A3 , \field Schedule Name
       \required-field
       \type object-list
       \object-list ScheduleNames
       \note units in schedule should be fraction applied to design level of lights, generally (0.0 - 1.0)
  A4 , \field Photometric Data Name
       \required-field  
       \type object-list
       \object-list PhotometricDataNames  
  N1 , \field Position X-coordinate
       \required-field  
       \units m
       \type real
  N2 , \field Position Y-coordinate
       \required-field  
       \units m
       \type real
  N3 , \field Position Z-coordinate
       \required-field  
       \units m
       \type real 
  N4 , \field Psi Rotation Around X-axis
       \units deg
       \minimum 0
       \maximum 360
       \default 0
  N5 , \field Theta Rotation Around Y-axis
       \units deg
       \minimum 0
       \maximum 360
       \default 0
  N6 , \field Phi Rotation Around Z-axis
       \units deg
       \minimum 0
       \maximum 360
       \default 0
  N7 , \field Return Air Fraction
       \note Used only for sizing calculation if return-air-fraction
       \note coefficients are specified.
       \type real
       \minimum 0.0
       \maximum 1.0
       \default 0
  N8 , \field Fraction Replaceable
       \note For Daylighting:Controls and Daylighting:DElight:Controls,
       \note must be 0 or 1:  0 = no dimming control, 1 = full dimming control
       \type real
       \minimum 0.0
       \maximum 1.0
       \default 1.0
  A5 , \field End-Use Subcategory
       \type alpha
       \retaincase
       \default General
  A6 , \field Return Air Fraction Calculated from Plenum Temperature
       \type choice
       \key Yes
       \key No
       \default No
  N9 , \field Return Air Fraction Function of Plenum Temperature Coefficient 1
       \note Used only if Return Air Fraction Is Calculated from Plenum Temperature = Yes
       \note Equation is Return Air Fraction = Coefficient#1 - Coefficient#2 X PlenumTemp(degC)
       \type real
       \minimum 0.0
       \default 0.0
  N10; \field Return Air Fraction Function of Plenum Temperature Coefficient 2
       \note Used only if Return Air Fraction Is Calculated from Plenum Temperature = Yes
       \note Equation is Return Air Fraction = Coefficient#1 - Coefficient#2 X PlenumTemp(degC)
       \type real
       \units 1/K
       \minimum 0.0
       \default 0.0
       
OS:Material:AirWall,
  A1 ; \field Name
       \required-field
       \type alpha
       \reference MaterialName
       
OS:Material:RenderingSettings,
  A1,  \field Name
       \required-field
       \type alpha    
  A2,  \field Material Name
       \required-field
       \type object-list
       \object-list MaterialName    
  N1,  \field Red Value
       \type integer
       \minimum 0
       \maximum 255
  N2,  \field Green Value
       \type integer   
       \minimum 0
       \maximum 255       
  N3,  \field Blue Value
       \type integer
       \minimum 0
       \maximum 255      
  N4,  \field Alpha Value
       \type integer
       \minimum 0
       \maximum 255       
  A3;  \field Texture Image Path
       \type alpha
       
OS:Node,
  A1, \field Name
      \type alpha
      \required-field
      \reference ConnectionObject
      \reference Node
  N1, \field Inlet Port
      \required-field
      \type object-list
      \object-list ZKConnection
  N2; \field Outlet Port
      \required-field
      \type object-list
      \object-list ZKConnection

OS:Connection,
  A1, \field Name
      \type alpha
      \required-field
      \reference ZKConnection 
  A2, \field Source Object
      \required-field
      \type object-list
      \object-list ConnectionObject
  N1, \field Outlet Port
      \type integer
      \minimum 0
  A3, \field Target Object  
      \required-field
      \type object-list
      \object-list ConnectionObject
  N2; \field Inlet Port
      \type integer
      \minimum 0
      
OS:Fan:OnOff,
  \min-fields 9
  A1 , \field Name
       \required-field
       \reference Fans
       \reference FansCVandOnOff
       \reference FansOnOff
       \reference ConnectionObject
  A2 , \field Availability Schedule Name
       \type object-list
       \object-list ScheduleNames
       \required-field
  N1 , \field Fan Efficiency
       \type real
       \default 0.6
       \minimum> 0.0
       \maximum 1.0
  N2 , \field Pressure Rise
       \units Pa
       \ip-units inH2O
       \required-field
  N3 , \field Maximum Flow Rate
       \units m3/s
       \minimum 0.0
       \autosizable
  N4 , \field Motor Efficiency
       \type real
       \default 0.8
       \minimum> 0.0
       \maximum 1.0
  N5 , \field Motor In Airstream Fraction
       \note 0.0 means fan motor outside of air stream, 1.0 means motor inside of air stream
       \type real
       \minimum 0.0
       \maximum 1.0
  A3 , \field Air Inlet Node Name
       \required-field
       \type object-list
       \object-list ZKConnection
  A4 , \field Air Outlet Node Name
       \required-field
       \type object-list
       \object-list ZKConnection
  A5 , \field Fan Power Ratio Function of Speed Ratio Curve Name
       \type object-list
       \object-list ExponentCurves
  A6 , \field Fan Efficiency Ratio Function of Speed Ratio Curve Name
       \type object-list
       \object-list QuadraticCubicCurves
  A7 ; \field End-Use Subcategory
       \type alpha
       \retaincase
       \default General

OS:Fan:ConstantVolume,
  \min-fields 9
  A1 , \field Name
       \required-field
       \reference Fans
       \reference FansCV
       \reference FansCVandOnOff
       \reference FansCVandVAV
       \reference ConnectionObject
  A2 , \field Availability Schedule Name
       \required-field
       \type object-list
       \object-list ScheduleNames
  N1 , \field Fan Efficiency
       \type real
       \default 0.7
       \minimum> 0.0
       \maximum 1.0
  N2 , \field Pressure Rise
       \units Pa
       \ip-units inH2O
       \required-field
  N3 , \field Maximum Flow Rate
       \units m3/s
       \minimum 0.0
       \autosizable
  N4 , \field Motor Efficiency
       \type real
       \default 0.9
       \minimum> 0.0
       \maximum 1.0
  N5 , \field Motor In Airstream Fraction
       \note 0.0 means fan motor outside of air stream, 1.0 means motor inside of air stream
       \type real
       \default 1.0
       \minimum 0.0
       \maximum 1.0
  A3 , \field Air Inlet Node Name
       \required-field
       \type object-list
       \object-list ZKConnection
  A4 , \field Air Outlet Node Name
       \required-field
       \type object-list
       \object-list ZKConnection
  A5 ; \field End-Use Subcategory
       \type alpha
       \retaincase
       \default General

OS:AirLoopHVAC:UnitaryCoolOnly,
        \min-fields 7
   A1 , \field Name
        \required-field
        \type alpha
        \reference ConnectionObject
   A2 , \field Availability Schedule Name
        \required-field
        \type object-list
        \object-list ScheduleNames
   A3 , \field DX Cooling Coil System Inlet Node Name
        \required-field
        \type object-list
        \object-list ZKConnection
   A4 , \field DX Cooling Coil System Outlet Node Name
        \required-field
        \type object-list
        \object-list ZKConnection
   A5 , \field DX Cooling Coil System Sensor Node Name
        \required-field
        \type alpha
   A6,  \field Cooling Coil Object Type
        \type choice
        \required-field
        \key Coil:Cooling:DX:SingleSpeed
        \key CoilSystem:Cooling:DX:HeatExchangerAssisted
        \key Coil:Cooling:DX:TwoSpeed
        \key Coil:Cooling:DX:TwoStageWithHumidityControlMode
   A7,  \field Cooling Coil Name
        \required-field
        \type object-list
        \object-list CoolingCoilsDX
   A8,  \field Dehumidification Control Type
        \type choice
        \key None
        \key Multimode
        \key CoolReheat
        \default None
        \note None = meet sensible load only
        \note Multimode = activate enhanced dehumidification mode
        \note as needed and meet sensible load.  Valid only with
        \note Coil:Cooling:DX:TwoStageWithHumidityControlMode or
        \note CoilSystem:Cooling:DX:HeatExchangerAssisted.
        \note CoolReheat = cool beyond the dry bulb setpoint.
        \note as required to meet the humidity setpoint.
        \note Valid for all coil types.
        \note For all dehumidification controls, the max
        \note humidity setpoint on the Sensor Node is used.
        \note This must be set using ZoneControl:Humidistat and
        \note SetpointManager:SingleZone:Humidity:Maximum and
        \note SetpointManager:OutdoorAirPretreat(optional) objects
   A9,  \field Run on Sensible Load
        \type choice
        \key Yes
        \key No
        \default Yes
        \note If Yes, unit will run if there is a sensible load.
        \note If No, unit will not run if there is only a sensible load.
        \note Dehumidification controls will be active if specified.
  A10;  \field Run on Latent Load
        \type choice
        \key Yes
        \key No
        \default No
        \note If Yes, unit will run if there is a latent load.
        \note even if there is no sensible load.
        \note If No, unit will not run only if there is a latent load.
        \note Dehumidification controls will be active if specified.

OS:EvaporativeCooler:Direct:ResearchSpecial,
  A1 , \field Name
       \required-field
       \type alpha
       \reference ConnectionObject
  A2 , \field Availability Schedule Name
       \type object-list
       \object-list ScheduleNames
  N1 , \field Cooler Effectiveness
       \note effectiveness with respect to wetbulb depression
       \type real
       \minimum 0.0
       \maximum 1.0
  N2 , \field Recirculating Water Pump Power Consumption
       \units W
       \ip-units W
       \minimum 0.0
  A3 , \field Air Inlet Node Name
       \required-field
       \type object-list
       \object-list ZKConnection
  A4 , \field Air Outlet Node Name
       \required-field
       \type object-list
       \object-list ZKConnection
  A5 , \Field Sensor Node Name
       \type object-list
       \object-list Node
  A6 , \Field Water Supply Storage Tank Name
       \type object-list
       \object-list WaterStorageTankNames
  N3 , \field Drift Loss Fraction
       \type real
       \minimum 0.0
       \note Rate of drift loss as a fraction of evaporated water flow rate
  N4 ; \field Blowdown Concentration Ratio
       \type real
       \minimum 2.0
       \note Characterizes the rate of blowdown in the evaporative cooler.
       \note Blowdown is water intentionally drained from the cooler in order to offset the build up
       \note of solids in the water that would otherwise occur because of evaporation.
       \note Ratio of solids in the blowdown water to solids in the make up water.
       \note A typical value is 3. If left blank then there is no blowdown.

OS:Coil:Heating:Gas,
  A1 , \field Name
       \required-field
       \type alpha
       \reference HeatingCoilName
       \reference HeatingCoilsGasElec
       \reference HeatingCoilsGasElecDesup
       \reference ConnectionObject
  A2 , \field Availability Schedule Name
       \required-field
       \type object-list
       \object-list ScheduleNames
  N1 , \field Gas Burner Efficiency
       \maximum 1.0
       \minimum 0.0
       \default 0.8
  N2 , \field Nominal Capacity
       \units W
       \autosizable
  A3 , \field Air Inlet Node Name
       \required-field
       \type object-list
       \object-list ZKConnection
  A4 , \field Air Outlet Node Name
       \required-field
       \type object-list
       \object-list ZKConnection
  A5 , \field Temperature Setpoint Node Name
       \note optional, used if coil is temperature control and not load-base controlled
  N3 , \field Parasitic Electric Load
       \units W
       \note parasitic electric load associated with the gas coil operation
       \note such as an inducer fan, etc..  This will be modified by the part load ratio to reflect
       \note the time of operation in a timestep.
       \ip-units W
  A6 , \field Part Load Fraction Correlation Curve Name
       \type object-list
       \object-list QuadraticCubicCurves
       \note quadratic curve, PLF = a + b*PLR + c*PLR**2
       \note cubic curve, PLF = a + b*PLR + c*PLR**2 + d*PLR**3
       \note PLF = part load fraction
       \note PLR = part load ratio (sensible heating load/steady-state heating capacity)
       \note Coil runtime fraction = Part Load Ratio / PLF
       \note This part load degradation is for coil performance & will
       \note increase the gas consumption of the coil due to transient coil operation.
  N4 ; \field Parasitic Gas Load
       \units W
       \note parasitic gas load associated with the gas coil operation (i.e., standing pilot)

OS:AirTerminal:SingleDuct:Uncontrolled,
       \min-fields 4
   A1, \field Name
       \required-field
       \reference ConnectionObject
   A2, \field Availability Schedule Name
       \required-field
       \type object-list
       \object-list ScheduleNames
   A3, \field Inlet Air Node Name
       \required-field
       \type object-list
       \object-list ZKConnection
   A4, \field Zone Supply Air Node Name
       \required-field
       \type object-list
       \object-list ZKConnection
   N1; \field Maximum Air Flow Rate
       \required-field
       \units m3/s
       \minimum 0.0
       \autosizable

OS:AirLoopHVAC,
       \min-fields 10
       \memo Defines a central forced air system
   A1, \field Name
       \required-field
       \type alpha
       \reference AirPrimaryLoops
       \reference ConnectionObject
   A2, \field Controller List Name
       \note Enter the name of an AirLoopHVAC:ControllerList object.
       \type object-list
       \object-list ControllerLists
   A3, \field Availability Manager List Name
       \note Enter the name of an AvailabilityManagerAssignmentList object.
       \type object-list
       \object-list SystemAvailabilityManagerLists
   N1, \field Design Supply Air Flow Rate
       \default 0
       \units m3/s
       \autosizable
   A4, \field Branch List Name
       \note Name of a BranchList containing all the branches in this air loop
       \required-field