! From counter.inc created by EP-Launch when running groups of files
! Output files                          10-Proposed
! Run description                       Add TSC to get to Proposed
! Parent Run                            Evap Cooling
! Run Flag                              yes
! Weather file                          USA_CO_Golden-NREL.724666_TMY3.epw
     ! Envelope
     ! Internal Gains
     ! Systems
     ! Include
!-Generator IDFEditor 1.36a
!-Option SortedOrder UseSpecialFormat
!-NOTE: All comments with '!-' are ignored by the IDFEditor and are generated automatically.
!-      Use '!' comments if they need to be retained when using the IDFEditor.
!-   ===========  ALL OBJECTS IN CLASS: FENESTRATIONSURFACE:DETAILED ===========
FenestrationSurface:Detailed,
    C3N East Window01,       !- Name
    Window,                  !- Surface Type
    NREL Vision SWindow,         !- Construction Name
    C3N East EWall1,         !- Building Surface Name
    ,                        !- Outside Boundary Condition Object
    ,                        !- View Factor to Ground
    ,                        !- Shading Control Name
    ,                        !- Frame and Divider Name
    ,                        !- Multiplier
    4,                       !- Number of Vertices
    86.787018, 73.020872, 13.258800,    !- X,Y,Z  1 {m}
    86.787018, 73.020872, 11.125200,    !- X,Y,Z  2 {m}
    86.313690, 74.787357, 11.125200,    !- X,Y,Z  3 {m}
    86.313690, 74.787357, 13.258800;    !- X,Y,Z  4 {m}
FenestrationSurface:Detailed,
    C3N East Window02,       !- Name
    Window,                  !- Surface Type
    NREL Vision SWindow,         !- Construction Name
    C3N East EWall1,         !- Building Surface Name
    ,                        !- Outside Boundary Condition Object
    ,                        !- View Factor to Ground
    ,                        !- Shading Control Name
    ,                        !- Frame and Divider Name
    ,                        !- Multiplier
    4,                       !- Number of Vertices
    85.209257, 78.909156, 13.258800,    !- X,Y,Z  1 {m}
    85.209257, 78.909156, 11.125200,    !- X,Y,Z  2 {m}
    84.735929, 80.675641, 11.125200,    !- X,Y,Z  3 {m}
    84.735929, 80.675641, 13.258800;    !- X,Y,Z  4 {m}
FenestrationSurface:Detailed,
    C4N East Window02,       !- Name
    Window,                  !- Surface Type
    NREL Vision SWindow,         !- Construction Name
    C4N East EWall,          !- Building Surface Name
    ,                        !- Outside Boundary Condition Object
    ,                        !- View Factor to Ground
    ,                        !- Shading Control Name
    ,                        !- Frame and Divider Name
    ,                        !- Multiplier
    4,                       !- Number of Vertices
    84.397414, 81.938993, 17.526000,    !- X,Y,Z  1 {m}
    84.397414, 81.938993, 15.392400,    !- X,Y,Z  2 {m}
    84.055566, 83.214788, 15.392400,    !- X,Y,Z  3 {m}
    84.055566, 83.214788, 17.526000;    !- X,Y,Z  4 {m}
FenestrationSurface:Detailed,
    C4N East Window01,       !- Name
    Window,                  !- Surface Type
    NREL Vision SWindow,         !- Construction Name
    C4N East EWall,          !- Building Surface Name
    ,                        !- Outside Boundary Condition Object
    ,                        !- View Factor to Ground
    ,                        !- Shading Control Name
    ,                        !- Frame and Divider Name
    ,                        !- Multiplier
    4,                       !- Number of Vertices
    86.787021, 73.020861, 17.526000,    !- X,Y,Z  1 {m}
    86.787020, 73.020865, 15.392400,    !- X,Y,Z  2 {m}
    86.576652, 73.805969, 15.392400,    !- X,Y,Z  3 {m}
    86.576653, 73.805966, 17.526000;    !- X,Y,Z  4 {m}
FenestrationSurface:Detailed,
    C4N Bottom North Window01,  !- Name
    Window,                  !- Surface Type
    NREL Vision SWindow,  !- Construction Name
    C4N North EWall01,       !- Building Surface Name
    ,                        !- Outside Boundary Condition Object
    ,                        !- View Factor to Ground
    ,                        !- Shading Control Name
    ,                        !- Frame and Divider Name
    ,                        !- Multiplier
    4,                       !- Number of Vertices
    83.776879, 83.666034, 17.526000,    !- X,Y,Z  1 {m}
    83.776879, 83.666034, 15.392400,    !- X,Y,Z  2 {m}
    83.188051, 83.508258, 15.392400,    !- X,Y,Z  3 {m}
    83.188051, 83.508258, 17.526000;    !- X,Y,Z  4 {m}
FenestrationSurface:Detailed,
    C4N Top North Window01,  !- Name
    Window,                  !- Surface Type
    NREL Daylight SWindow,   !- Construction Name
    C4N North EWall01,       !- Building Surface Name
    ,                        !- Outside Boundary Condition Object
    ,                        !- View Factor to Ground
    ,                        !- Shading Control Name
    ,                        !- Frame and Divider Name
    ,                        !- Multiplier
    4,                       !- Number of Vertices
    83.188051, 83.508258, 19.710400,    !- X,Y,Z  1 {m}
    83.188051, 83.508258, 18.491200,    !- X,Y,Z  2 {m}
    80.243909, 82.719377, 18.491200,    !- X,Y,Z  3 {m}
    80.243909, 82.719377, 19.710400;    !- X,Y,Z  4 {m}
FenestrationSurface:Detailed,
    C4N Top North Window02,  !- Name
    Window,                  !- Surface Type
    NREL Daylight SWindow,   !- Construction Name
    C4N North EWall01,       !- Building Surface Name
    ,                        !- Outside Boundary Condition Object
    ,                        !- View Factor to Ground
    ,                        !- Shading Control Name
    ,                        !- Frame and Divider Name
    ,                        !- Multiplier
    4,                       !- Number of Vertices
    78.035802, 82.127717, 19.710400,    !- X,Y,Z  1 {m}
    78.035802, 82.127717, 18.491200,    !- X,Y,Z  2 {m}
    75.091660, 81.338836, 18.491200,    !- X,Y,Z  3 {m}
    75.091660, 81.338836, 19.710400;    !- X,Y,Z  4 {m}
FenestrationSurface:Detailed,
    C4N Bottom North Window03,  !- Name
    Window,                  !- Surface Type
    NREL Vision SWindow,  !- Construction Name
    C4N North EWall01,       !- Building Surface Name
    ,                        !- Outside Boundary Condition Object
    ,                        !- View Factor to Ground
    ,                        !- Shading Control Name
    ,                        !- Frame and Divider Name
    ,                        !- Multiplier
    4,                       !- Number of Vertices
    78.035802, 82.127717, 17.526000,    !- X,Y,Z  1 {m}
    78.035802, 82.127717, 15.392400,    !- X,Y,Z  2 {m}
    76.269317, 81.654389, 15.392400,    !- X,Y,Z  3 {m}
    76.269317, 81.654389, 17.526000;    !- X,Y,Z  4 {m}
FenestrationSurface:Detailed,
    C4N Bottom North Window04,  !- Name
    Window,                  !- Surface Type
    NREL Vision SWindow,  !- Construction Name
    C4N North EWall01,       !- Building Surface Name
    ,                        !- Outside Boundary Condition Object
    ,                        !- View Factor to Ground
    ,                        !- Shading Control Name
    ,                        !- Frame and Divider Name
    ,                        !- Multiplier
    4,                       !- Number of Vertices
    75.533282, 81.457169, 17.526000,    !- X,Y,Z  1 {m}
    75.533282, 81.457169, 15.392400,    !- X,Y,Z  2 {m}
    73.766796, 80.983840, 15.392400,    !- X,Y,Z  3 {m}
    73.766796, 80.983840, 17.526000;    !- X,Y,Z  4 {m}
FenestrationSurface:Detailed,
    C4N Bottom North Window05,  !- Name
    Window,                  !- Surface Type
    NREL Vision SWindow,  !- Construction Name
    C4N North EWall01,       !- Building Surface Name
    ,                        !- Outside Boundary Condition Object
    ,                        !- View Factor to Ground
    ,                        !- Shading Control Name
    ,                        !- Frame and Divider Name
    ,                        !- Multiplier
    4,                       !- Number of Vertices
    73.030761, 80.786620, 17.526000,    !- X,Y,Z  1 {m}
    73.030761, 80.786620, 15.392400,    !- X,Y,Z  2 {m}
    71.264276, 80.313292, 15.392400,    !- X,Y,Z  3 {m}
    71.264276, 80.313292, 17.526000;    !- X,Y,Z  4 {m}
FenestrationSurface:Detailed,
    C4N Top North Window03,  !- Name
    Window,                  !- Surface Type
    NREL Daylight SWindow,   !- Construction Name
    C4N North EWall01,       !- Building Surface Name
    ,                        !- Outside Boundary Condition Object
    ,                        !- View Factor to Ground
    ,                        !- Shading Control Name
    ,                        !- Frame and Divider Name
    ,                        !- Multiplier
    4,                       !- Number of Vertices
    74.208418, 81.102172, 19.710400,    !- X,Y,Z  1 {m}
    74.208418, 81.102172, 18.491200,    !- X,Y,Z  2 {m}
    71.264276, 80.313292, 18.491200,    !- X,Y,Z  3 {m}
    71.264276, 80.313292, 19.710400;    !- X,Y,Z  4 {m}
FenestrationSurface:Detailed,
    C4N Bottom North Window07,  !- Name
    Window,                  !- Surface Type
    NREL Vision SWindow,  !- Construction Name
    C4N North EWall01,       !- Building Surface Name
    ,                        !- Outside Boundary Condition Object
    ,                        !- View Factor to Ground
    ,                        !- Shading Control Name
    ,                        !- Frame and Divider Name
    ,                        !- Multiplier
    4,                       !- Number of Vertices
    66.676321, 79.083953, 17.526000,    !- X,Y,Z  1 {m}
    66.676321, 79.083953, 15.392400,    !- X,Y,Z  2 {m}
    66.087493, 78.926177, 15.392400,    !- X,Y,Z  3 {m}
    66.087493, 78.926177, 17.526000;    !- X,Y,Z  4 {m}
FenestrationSurface:Detailed,
    C4N West Window01,       !- Name
    Window,                  !- Surface Type
    NREL Vision SWindow,         !- Construction Name
    C4N West EWall1,         !- Building Surface Name
    ,                        !- Outside Boundary Condition Object
    ,                        !- View Factor to Ground
    ,                        !- Shading Control Name
    ,                        !- Frame and Divider Name
    ,                        !- Multiplier
    4,                       !- Number of Vertices
    66.071766, 78.396043, 17.526000,    !- X,Y,Z  1 {m}
    66.071766, 78.396043, 15.392400,    !- X,Y,Z  2 {m}
    66.545094, 76.629558, 15.392400,    !- X,Y,Z  3 {m}
    66.545094, 76.629558, 17.526000;    !- X,Y,Z  4 {m}
FenestrationSurface:Detailed,
    C4N West Window02,       !- Name
    Window,                  !- Surface Type
    NREL Vision SWindow,         !- Construction Name
    C4N West EWall1,         !- Building Surface Name
    ,                        !- Outside Boundary Condition Object
    ,                        !- View Factor to Ground
    ,                        !- Shading Control Name
    ,                        !- Frame and Divider Name
    ,                        !- Multiplier
    4,                       !- Number of Vertices
    67.794155, 71.968000, 17.526000,    !- X,Y,Z  1 {m}
    67.794155, 71.968000, 15.392400,    !- X,Y,Z  2 {m}
    68.267483, 70.201514, 15.392400,    !- X,Y,Z  3 {m}
    68.267483, 70.201514, 17.526000;    !- X,Y,Z  4 {m}
FenestrationSurface:Detailed,
    C4N West Window03,       !- Name
    Window,                  !- Surface Type
    NREL Vision SWindow,         !- Construction Name
    C4N West EWall1,         !- Building Surface Name
    ,                        !- Outside Boundary Condition Object
    ,                        !- View Factor to Ground
    ,                        !- Shading Control Name
    ,                        !- Frame and Divider Name
    ,                        !- Multiplier
    4,                       !- Number of Vertices
    68.661924, 68.729443, 17.526000,    !- X,Y,Z  1 {m}
    68.661924, 68.729443, 15.392400,    !- X,Y,Z  2 {m}
    69.135252, 66.962958, 15.392400,    !- X,Y,Z  3 {m}
    69.135252, 66.962958, 17.526000;    !- X,Y,Z  4 {m}
FenestrationSurface:Detailed,
    C3N West Window01,       !- Name
    Window,                  !- Surface Type
    NREL Vision SWindow,         !- Construction Name
    C3N West EWall1,         !- Building Surface Name
    ,                        !- Outside Boundary Condition Object
    ,                        !- View Factor to Ground
    ,                        !- Shading Control Name
    ,                        !- Frame and Divider Name
    ,                        !- Multiplier
    4,                       !- Number of Vertices
    66.768611, 75.795384, 13.258800,    !- X,Y,Z  1 {m}
    66.768611, 75.795384, 11.125200,    !- X,Y,Z  2 {m}
    67.241939, 74.028899, 11.125200,    !- X,Y,Z  3 {m}
    67.241940, 74.028899, 13.258800;    !- X,Y,Z  4 {m}
FenestrationSurface:Detailed,
    C3N West Window02,       !- Name
    Window,                  !- Surface Type
    NREL Vision SWindow,         !- Construction Name
    C3N West EWall1,         !- Building Surface Name
    ,                        !- Outside Boundary Condition Object
    ,                        !- View Factor to Ground
    ,                        !- Shading Control Name
    ,                        !- Frame and Divider Name
    ,                        !- Multiplier
    4,                       !- Number of Vertices
    68.346373, 69.907101, 13.258800,    !- X,Y,Z  1 {m}
    68.346373, 69.907101, 11.125200,    !- X,Y,Z  2 {m}
    68.819702, 68.140616, 11.125200,    !- X,Y,Z  3 {m}
    68.819702, 68.140616, 13.258800;    !- X,Y,Z  4 {m}
FenestrationSurface:Detailed,
    C4N Bottom North Window06,  !- Name
    Window,                  !- Surface Type
    NREL Vision SWindow,  !- Construction Name
    C4N North EWall01,       !- Building Surface Name
    ,                        !- Outside Boundary Condition Object
    ,                        !- View Factor to Ground
    ,                        !- Shading Control Name
    ,                        !- Frame and Divider Name
    ,                        !- Multiplier
    4,                       !- Number of Vertices
    69.473256, 79.833390, 17.526000,    !- X,Y,Z  1 {m}
    69.473256, 79.833390, 15.392400,    !- X,Y,Z  2 {m}
    67.706771, 79.360062, 15.392400,    !- X,Y,Z  3 {m}
    67.706771, 79.360062, 17.526000;    !- X,Y,Z  4 {m}
FenestrationSurface:Detailed,
    C4N Bottom North Window02,  !- Name
    Window,                  !- Surface Type
    NREL Vision SWindow,  !- Construction Name
    C4N North EWall01,       !- Building Surface Name
    ,                        !- Outside Boundary Condition Object
    ,                        !- View Factor to Ground
    ,                        !- Shading Control Name
    ,                        !- Frame and Divider Name
    ,                        !- Multiplier
    4,                       !- Number of Vertices
    82.157601, 83.232150, 17.526000,    !- X,Y,Z  1 {m}
    82.157601, 83.232150, 15.392400,    !- X,Y,Z  2 {m}
    80.391116, 82.758821, 15.392400,    !- X,Y,Z  3 {m}
    80.391116, 82.758821, 17.526000;    !- X,Y,Z  4 {m}
!-Generator IDFEditor 1.36a
!-Option SortedOrder UseSpecialFormat
!-NOTE: All comments with '!-' are ignored by the IDFEditor and are generated automatically.
!-      Use '!' comments if they need to be retained when using the IDFEditor.
!-   ===========  ALL OBJECTS IN CLASS: FENESTRATIONSURFACE:DETAILED ===========
FenestrationSurface:Detailed,
    D1N North Window01,      !- Name
    Window,                  !- Surface Type
    NREL Vision SWindow,       !- Construction Name
    D1N North EWall1,        !- Building Surface Name
    ,                        !- Outside Boundary Condition Object
    ,                        !- View Factor to Ground
    ,                        !- Shading Control Name
    ,                        !- Frame and Divider Name
    ,                        !- Multiplier
    4,                       !- Number of Vertices
    27.469159, 55.233378, 5.435600,     !- X,Y,Z  1 {m}
    27.469160, 55.233375, 4.521200,     !- X,Y,Z  2 {m}
    25.702675, 54.760047, 4.521200,     !- X,Y,Z  3 {m}
    25.702674, 54.760050, 5.435600;     !- X,Y,Z  4 {m}
FenestrationSurface:Detailed,
    D1N North Window02,      !- Name
    Window,                  !- Surface Type
    NREL Vision SWindow,       !- Construction Name
    D1N North EWall1,        !- Building Surface Name
    ,                        !- Outside Boundary Condition Object
    ,                        !- View Factor to Ground
    ,                        !- Shading Control Name
    ,                        !- Frame and Divider Name
    ,                        !- Multiplier
    4,                       !- Number of Vertices
    24.525017, 54.444498, 5.435600,     !- X,Y,Z  1 {m}
    24.525017, 54.444498, 4.521200,     !- X,Y,Z  2 {m}
    22.758532, 53.971170, 4.521200,     !- X,Y,Z  3 {m}
    22.758532, 53.971170, 5.435600;     !- X,Y,Z  4 {m}
FenestrationSurface:Detailed,
    D1N North Window03,      !- Name
    Window,                  !- Surface Type
    NREL Vision SWindow,       !- Construction Name
    D1N North EWall1,        !- Building Surface Name
    ,                        !- Outside Boundary Condition Object
    ,                        !- View Factor to Ground
    ,                        !- Shading Control Name
    ,                        !- Frame and Divider Name
    ,                        !- Multiplier
    4,                       !- Number of Vertices
    21.580875, 53.655618, 5.435600,     !- X,Y,Z  1 {m}
    21.580875, 53.655618, 4.521200,     !- X,Y,Z  2 {m}
    19.814390, 53.182290, 4.521200,     !- X,Y,Z  3 {m}
    19.814390, 53.182290, 5.435600;     !- X,Y,Z  4 {m}
FenestrationSurface:Detailed,
    D1N North Window04,      !- Name
    Window,                  !- Surface Type
    NREL Vision SWindow,       !- Construction Name
    D1N North EWall1,        !- Building Surface Name
    ,                        !- Outside Boundary Condition Object
    ,                        !- View Factor to Ground
    ,                        !- Shading Control Name
    ,                        !- Frame and Divider Name
    ,                        !- Multiplier
    4,                       !- Number of Vertices
    18.636733, 52.866738, 5.435600,     !- X,Y,Z  1 {m}
    18.636733, 52.866738, 4.521200,     !- X,Y,Z  2 {m}
    16.870248, 52.393410, 4.521200,     !- X,Y,Z  3 {m}
    16.870248, 52.393410, 5.435600;     !- X,Y,Z  4 {m}
FenestrationSurface:Detailed,
    D1N North Window05,      !- Name
    Window,                  !- Surface Type
    NREL Vision SWindow,       !- Construction Name
    D1N North EWall1,        !- Building Surface Name
    ,                        !- Outside Boundary Condition Object
    ,                        !- View Factor to Ground
    ,                        !- Shading Control Name
    ,                        !- Frame and Divider Name
    ,                        !- Multiplier
    4,                       !- Number of Vertices
    15.692591, 52.077858, 5.435600,     !- X,Y,Z  1 {m}
    15.692591, 52.077858, 4.521200,     !- X,Y,Z  2 {m}
    13.926105, 51.604530, 4.521200,     !- X,Y,Z  3 {m}
    13.926105, 51.604530, 5.435600;     !- X,Y,Z  4 {m}
FenestrationSurface:Detailed,
    D1N North Window06,      !- Name
    Window,                  !- Surface Type
    NREL Vision SWindow,       !- Construction Name
    D1N North EWall1,        !- Building Surface Name
    ,                        !- Outside Boundary Condition Object
    ,                        !- View Factor to Ground
    ,                        !- Shading Control Name
    ,                        !- Frame and Divider Name
    ,                        !- Multiplier
    4,                       !- Number of Vertices
    12.748449, 51.288978, 5.435600,     !- X,Y,Z  1 {m}
    12.748449, 51.288978, 4.521200,     !- X,Y,Z  2 {m}
    10.981963, 50.815651, 4.521200,     !- X,Y,Z  3 {m}
    10.981963, 50.815651, 5.435600;     !- X,Y,Z  4 {m}
FenestrationSurface:Detailed,
    D1N North Window07,      !- Name
    Window,                  !- Surface Type
    NREL Vision SWindow,       !- Construction Name
    D1N North EWall1,        !- Building Surface Name
    ,                        !- Outside Boundary Condition Object
    ,                        !- View Factor to Ground
    ,                        !- Shading Control Name
    ,                        !- Frame and Divider Name
    ,                        !- Multiplier
    4,                       !- Number of Vertices
    9.804307, 50.500099, 5.435600,      !- X,Y,Z  1 {m}
    9.804307, 50.500099, 4.521200,      !- X,Y,Z  2 {m}
    8.037821, 50.026771, 4.521200,      !- X,Y,Z  3 {m}
    8.037821, 50.026771, 5.435600;      !- X,Y,Z  4 {m}
FenestrationSurface:Detailed,
    D2N Top North Window01,  !- Name
    Window,                  !- Surface Type
    NREL Daylight SWindow,       !- Construction Name
    D2N North EWall1,        !- Building Surface Name
    ,                        !- Outside Boundary Condition Object
    ,                        !- View Factor to Ground
    ,                        !- Shading Control Name
    ,                        !- Frame and Divider Name
    ,                        !- Multiplier
    4,                       !- Number of Vertices
    59.854723, 63.911052, 9.753600,     !- X,Y,Z  1 {m}
    59.854723, 63.911052, 8.940800,     !- X,Y,Z  2 {m}
    58.088238, 63.437724, 8.940800,     !- X,Y,Z  3 {m}
    58.088238, 63.437724, 9.753600;     !- X,Y,Z  4 {m}
FenestrationSurface:Detailed,
    D2N Top North Window02,  !- Name
    Window,                  !- Surface Type
    NREL Daylight SWindow,       !- Construction Name
    D2N North EWall1,        !- Building Surface Name
    ,                        !- Outside Boundary Condition Object
    ,                        !- View Factor to Ground
    ,                        !- Shading Control Name
    ,                        !- Frame and Divider Name
    ,                        !- Multiplier
    4,                       !- Number of Vertices
    56.910581, 63.122172, 9.753600,     !- X,Y,Z  1 {m}
    56.910581, 63.122172, 8.940800,     !- X,Y,Z  2 {m}
    55.144096, 62.648844, 8.940800,     !- X,Y,Z  3 {m}
    55.144096, 62.648844, 9.753600;     !- X,Y,Z  4 {m}
FenestrationSurface:Detailed,
    D2N Top North Window03,  !- Name
    Window,                  !- Surface Type
    NREL Daylight SWindow,       !- Construction Name
    D2N North EWall1,        !- Building Surface Name
    ,                        !- Outside Boundary Condition Object
    ,                        !- View Factor to Ground
    ,                        !- Shading Control Name
    ,                        !- Frame and Divider Name
    ,                        !- Multiplier
    4,                       !- Number of Vertices
    53.966439, 62.333292, 9.753600,     !- X,Y,Z  1 {m}
    53.966439, 62.333292, 8.940800,     !- X,Y,Z  2 {m}
    52.199954, 61.859964, 8.940800,     !- X,Y,Z  3 {m}
    52.199954, 61.859964, 9.753600;     !- X,Y,Z  4 {m}
FenestrationSurface:Detailed,
    D2N Top North Window04,  !- Name
    Window,                  !- Surface Type
    NREL Daylight SWindow,       !- Construction Name
    D2N North EWall1,        !- Building Surface Name
    ,                        !- Outside Boundary Condition Object
    ,                        !- View Factor to Ground
    ,                        !- Shading Control Name
    ,                        !- Frame and Divider Name
    ,                        !- Multiplier
    4,                       !- Number of Vertices
    51.022297, 61.544412, 9.753600,     !- X,Y,Z  1 {m}
    51.022297, 61.544412, 8.940800,     !- X,Y,Z  2 {m}
    49.255812, 61.071084, 8.940800,     !- X,Y,Z  3 {m}
    49.255812, 61.071084, 9.753600;     !- X,Y,Z  4 {m}
FenestrationSurface:Detailed,
    D2N Top North Window05,  !- Name
    Window,                  !- Surface Type
    NREL Daylight SWindow,       !- Construction Name
    D2N North EWall1,        !- Building Surface Name
    ,                        !- Outside Boundary Condition Object
    ,                        !- View Factor to Ground
    ,                        !- Shading Control Name
    ,                        !- Frame and Divider Name
    ,                        !- Multiplier
    4,                       !- Number of Vertices
    48.078155, 60.755533, 9.753600,     !- X,Y,Z  1 {m}
    48.078155, 60.755532, 8.940800,     !- X,Y,Z  2 {m}
    46.311670, 60.282205, 8.940800,     !- X,Y,Z  3 {m}
    46.311670, 60.282205, 9.753600;     !- X,Y,Z  4 {m}
FenestrationSurface:Detailed,
    D2N Top North Window06,  !- Name
    Window,                  !- Surface Type
    NREL Daylight SWindow,       !- Construction Name
    D2N North EWall1,        !- Building Surface Name
    ,                        !- Outside Boundary Condition Object
    ,                        !- View Factor to Ground
    ,                        !- Shading Control Name
    ,                        !- Frame and Divider Name
    ,                        !- Multiplier
    4,                       !- Number of Vertices
    45.134012, 59.966652, 9.753600,     !- X,Y,Z  1 {m}
    45.134012, 59.966652, 8.940800,     !- X,Y,Z  2 {m}
    43.367527, 59.493324, 8.940800,     !- X,Y,Z  3 {m}
    43.367527, 59.493324, 9.753600;     !- X,Y,Z  4 {m}
FenestrationSurface:Detailed,
    D2N Top North Window07,  !- Name
    Window,                  !- Surface Type
    NREL Daylight SWindow,       !- Construction Name
    D2N North EWall1,        !- Building Surface Name
    ,                        !- Outside Boundary Condition Object
    ,                        !- View Factor to Ground
    ,                        !- Shading Control Name
    ,                        !- Frame and Divider Name
    ,                        !- Multiplier
    4,                       !- Number of Vertices
    42.189871, 59.177772, 9.753600,     !- X,Y,Z  1 {m}
    42.189870, 59.177772, 8.940800,     !- X,Y,Z  2 {m}
    40.423385, 58.704444, 8.940800,     !- X,Y,Z  3 {m}
    40.423385, 58.704444, 9.753600;     !- X,Y,Z  4 {m}
FenestrationSurface:Detailed,
    D2N Top North Window08,  !- Name
    Window,                  !- Surface Type
    NREL Daylight SWindow,       !- Construction Name
    D2N North EWall1,        !- Building Surface Name
    ,                        !- Outside Boundary Condition Object
    ,                        !- View Factor to Ground
    ,                        !- Shading Control Name
    ,                        !- Frame and Divider Name
    ,                        !- Multiplier
    4,                       !- Number of Vertices
    39.245729, 58.388892, 9.753600,     !- X,Y,Z  1 {m}
    39.245728, 58.388892, 8.940800,     !- X,Y,Z  2 {m}
    37.479243, 57.915564, 8.940800,     !- X,Y,Z  3 {m}
    37.479243, 57.915564, 9.753600;     !- X,Y,Z  4 {m}
FenestrationSurface:Detailed,
    D2N Top North Window09,  !- Name
    Window,                  !- Surface Type
    NREL Daylight SWindow,       !- Construction Name
    D2N North EWall1,        !- Building Surface Name
    ,                        !- Outside Boundary Condition Object
    ,                        !- View Factor to Ground
    ,                        !- Shading Control Name
    ,                        !- Frame and Divider Name
    ,                        !- Multiplier
    4,                       !- Number of Vertices
    36.301587, 57.600013, 9.753600,     !- X,Y,Z  1 {m}
    36.301586, 57.600013, 8.940800,     !- X,Y,Z  2 {m}
    34.535101, 57.126685, 8.940800,     !- X,Y,Z  3 {m}
    34.535101, 57.126685, 9.753600;     !- X,Y,Z  4 {m}
FenestrationSurface:Detailed,
    D2N Top North Window10,  !- Name
    Window,                  !- Surface Type
    NREL Daylight SWindow,       !- Construction Name
    D2N North EWall1,        !- Building Surface Name
    ,                        !- Outside Boundary Condition Object
    ,                        !- View Factor to Ground
    ,                        !- Shading Control Name
    ,                        !- Frame and Divider Name
    ,                        !- Multiplier
    4,                       !- Number of Vertices
    33.357445, 56.811133, 9.753600,     !- X,Y,Z  1 {m}
    33.357444, 56.811133, 8.940800,     !- X,Y,Z  2 {m}
    31.590959, 56.337805, 8.940800,     !- X,Y,Z  3 {m}
    31.590959, 56.337805, 9.753600;     !- X,Y,Z  4 {m}
FenestrationSurface:Detailed,
    D2N Top North Window11,  !- Name
    Window,                  !- Surface Type
    NREL Daylight SWindow,       !- Construction Name
    D2N North EWall1,        !- Building Surface Name
    ,                        !- Outside Boundary Condition Object
    ,                        !- View Factor to Ground
    ,                        !- Shading Control Name
    ,                        !- Frame and Divider Name
    ,                        !- Multiplier
    4,                       !- Number of Vertices
    30.413303, 56.022252, 9.753600,     !- X,Y,Z  1 {m}
    30.413302, 56.022252, 8.940800,     !- X,Y,Z  2 {m}
    28.646817, 55.548925, 8.940800,     !- X,Y,Z  3 {m}
    28.646817, 55.548925, 9.753600;     !- X,Y,Z  4 {m}
FenestrationSurface:Detailed,
    D2N Top North Window12,  !- Name