
OS:Version,
  {a669273e-75b7-406a-93fd-50a6f45a0a17}, !- Handle
  2.4.3;                                  !- Version Identifier

OS:BuildingStory,
  {eae780e4-15f4-476a-81b2-527ea908ec1e}, !- Handle
  Story 1,                                !- Name
  0,                                      !- Nominal Z Coordinate {m}
  4,                                      !- Nominal Floor to Floor Height {m}
  ,                                       !- Default Construction Set Name
  ,                                       !- Default Schedule Set Name
  ;                                       !- Group Rendering Name

OS:Space,
  {4760155e-fa09-4264-8901-d986e809e8bd}, !- Handle
  Story 1 Core Space,                     !- Name
  ,                                       !- Space Type Name
  ,                                       !- Default Construction Set Name
  ,                                       !- Default Schedule Set Name
  -0,                                     !- Direction of Relative North {deg}
  0,                                      !- X Origin {m}
  0,                                      !- Y Origin {m}
  0,                                      !- Z Origin {m}
  {eae780e4-15f4-476a-81b2-527ea908ec1e}, !- Building Story Name
  {ff634789-3b5c-4747-98c9-153c63b0c8b5}; !- Thermal Zone Name

OS:Surface,
  {17a99175-1a1f-4e88-973f-064c173708b1}, !- Handle
  Surface 1,                              !- Name
  Floor,                                  !- Surface Type
  ,                                       !- Construction Name
  {4760155e-fa09-4264-8901-d986e809e8bd}, !- Space Name
  Ground,                                 !- Outside Boundary Condition
  ,                                       !- Outside Boundary Condition Object
  NoSun,                                  !- Sun Exposure
  NoWind,                                 !- Wind Exposure
  ,                                       !- View Factor to Ground
  ,                                       !- Number of Vertices
  0, 0, 0,                                !- X,Y,Z Vertex 1 {m}
  0, 50, 0,                               !- X,Y,Z Vertex 2 {m}
  100, 50, 0,                             !- X,Y,Z Vertex 3 {m}
  100, 0, 0;                              !- X,Y,Z Vertex 4 {m}

OS:Surface,
  {e37aef67-72e3-46c3-b6af-57b590369182}, !- Handle
  Surface 2,                              !- Name
  Wall,                                   !- Surface Type
  ,                                       !- Construction Name
  {4760155e-fa09-4264-8901-d986e809e8bd}, !- Space Name
  Outdoors,                               !- Outside Boundary Condition
  ,                                       !- Outside Boundary Condition Object
  SunExposed,                             !- Sun Exposure
  WindExposed,                            !- Wind Exposure
  ,                                       !- View Factor to Ground
  ,                                       !- Number of Vertices
  0, 50, 4,                               !- X,Y,Z Vertex 1 {m}
  0, 50, 0,                               !- X,Y,Z Vertex 2 {m}
  0, 0, 0,                                !- X,Y,Z Vertex 3 {m}
  0, 0, 4;                                !- X,Y,Z Vertex 4 {m}

OS:Surface,
  {7dea40be-c108-4a25-b6bc-ec2bb026f449}, !- Handle
  Surface 3,                              !- Name
  Wall,                                   !- Surface Type
  ,                                       !- Construction Name
  {4760155e-fa09-4264-8901-d986e809e8bd}, !- Space Name
  Outdoors,                               !- Outside Boundary Condition
  ,                                       !- Outside Boundary Condition Object
  SunExposed,                             !- Sun Exposure
  WindExposed,                            !- Wind Exposure
  ,                                       !- View Factor to Ground
  ,                                       !- Number of Vertices
  100, 50, 4,                             !- X,Y,Z Vertex 1 {m}
  100, 50, 0,                             !- X,Y,Z Vertex 2 {m}
  0, 50, 0,                               !- X,Y,Z Vertex 3 {m}
  0, 50, 4;                               !- X,Y,Z Vertex 4 {m}

OS:Surface,
  {1c3f52ee-b008-4421-b00f-956c90631c73}, !- Handle
  Surface 4,                              !- Name
  Wall,                                   !- Surface Type
  ,                                       !- Construction Name
  {4760155e-fa09-4264-8901-d986e809e8bd}, !- Space Name
  Outdoors,                               !- Outside Boundary Condition
  ,                                       !- Outside Boundary Condition Object
  SunExposed,                             !- Sun Exposure
  WindExposed,                            !- Wind Exposure
  ,                                       !- View Factor to Ground
  ,                                       !- Number of Vertices
  100, 0, 4,                              !- X,Y,Z Vertex 1 {m}
  100, 0, 0,                              !- X,Y,Z Vertex 2 {m}
  100, 50, 0,                             !- X,Y,Z Vertex 3 {m}
  100, 50, 4;                             !- X,Y,Z Vertex 4 {m}

OS:Surface,
  {f3a11a49-3684-4976-b6c9-89d98555fb58}, !- Handle
  Surface 5,                              !- Name
  Wall,                                   !- Surface Type
  ,                                       !- Construction Name
  {4760155e-fa09-4264-8901-d986e809e8bd}, !- Space Name
  Outdoors,                               !- Outside Boundary Condition
  ,                                       !- Outside Boundary Condition Object
  SunExposed,                             !- Sun Exposure
  WindExposed,                            !- Wind Exposure
  ,                                       !- View Factor to Ground
  ,                                       !- Number of Vertices
  0, 0, 4,                                !- X,Y,Z Vertex 1 {m}
  0, 0, 0,                                !- X,Y,Z Vertex 2 {m}
  100, 0, 0,                              !- X,Y,Z Vertex 3 {m}
  100, 0, 4;                              !- X,Y,Z Vertex 4 {m}

OS:Surface,
  {59902c3c-ce63-4b0f-86ae-0555b10791be}, !- Handle
  Surface 6,                              !- Name
  RoofCeiling,                            !- Surface Type
  ,                                       !- Construction Name
  {4760155e-fa09-4264-8901-d986e809e8bd}, !- Space Name
  Outdoors,                               !- Outside Boundary Condition
  ,                                       !- Outside Boundary Condition Object
  SunExposed,                             !- Sun Exposure
  WindExposed,                            !- Wind Exposure
  ,                                       !- View Factor to Ground
  ,                                       !- Number of Vertices
  100, 0, 4,                              !- X,Y,Z Vertex 1 {m}
  100, 50, 4,                             !- X,Y,Z Vertex 2 {m}
  0, 50, 4,                               !- X,Y,Z Vertex 3 {m}
  0, 0, 4;                                !- X,Y,Z Vertex 4 {m}

OS:ThermalZone,
  {ff634789-3b5c-4747-98c9-153c63b0c8b5}, !- Handle
  Story 1 Core Thermal Zone,              !- Name
  ,                                       !- Multiplier
  ,                                       !- Ceiling Height {m}
  ,                                       !- Volume {m3}
  ,                                       !- Floor Area {m2}
  ,                                       !- Zone Inside Convection Algorithm
  ,                                       !- Zone Outside Convection Algorithm
  ,                                       !- Zone Conditioning Equipment List Name
  {c5558e49-43c8-4f7c-9db4-d28991d43295}, !- Zone Air Inlet Port List
  {080ca64a-5fce-4160-8c82-2a86da678fed}, !- Zone Air Exhaust Port List
  {45cb0c14-c6c1-4783-9949-a75ad9426af4}, !- Zone Air Node Name
  ,                                       !- Zone Return Air Node Name
  ,                                       !- Primary Daylighting Control Name
  ,                                       !- Fraction of Zone Controlled by Primary Daylighting Control
  ,                                       !- Secondary Daylighting Control Name
  ,                                       !- Fraction of Zone Controlled by Secondary Daylighting Control
  ,                                       !- Illuminance Map Name
  ,                                       !- Group Rendering Name
  ,                                       !- Thermostat Name
  No;                                     !- Use Ideal Air Loads

OS:Node,
  {2d78eca8-7337-4f68-8b36-824ad24893e5}, !- Handle
  Node 1,                                 !- Name
  {45cb0c14-c6c1-4783-9949-a75ad9426af4}, !- Inlet Port
  ;                                       !- Outlet Port

OS:Connection,
  {45cb0c14-c6c1-4783-9949-a75ad9426af4}, !- Handle
  {04347bb5-1376-45c9-a734-73b724857fd4}, !- Name
  {ff634789-3b5c-4747-98c9-153c63b0c8b5}, !- Source Object
  11,                                     !- Outlet Port
  {2d78eca8-7337-4f68-8b36-824ad24893e5}, !- Target Object
  2;                                      !- Inlet Port

OS:PortList,
  {c5558e49-43c8-4f7c-9db4-d28991d43295}, !- Handle
  {de5407dc-e13e-42e4-81bf-a7694714e91b}, !- Name
  {ff634789-3b5c-4747-98c9-153c63b0c8b5}; !- HVAC Component

OS:PortList,
  {080ca64a-5fce-4160-8c82-2a86da678fed}, !- Handle
  {24882e7f-564e-421a-b1c2-daf73db1e35d}, !- Name
  {ff634789-3b5c-4747-98c9-153c63b0c8b5}; !- HVAC Component

OS:Sizing:Zone,
  {0032001c-00c2-477f-977c-6f268fc847e9}, !- Handle
  {ff634789-3b5c-4747-98c9-153c63b0c8b5}, !- Zone or ZoneList Name
  SupplyAirTemperature,                   !- Zone Cooling Design Supply Air Temperature Input Method
  14,                                     !- Zone Cooling Design Supply Air Temperature {C}
  11.11,                                  !- Zone Cooling Design Supply Air Temperature Difference {deltaC}
  SupplyAirTemperature,                   !- Zone Heating Design Supply Air Temperature Input Method
  40,                                     !- Zone Heating Design Supply Air Temperature {C}
  11.11,                                  !- Zone Heating Design Supply Air Temperature Difference {deltaC}
  0.0085,                                 !- Zone Cooling Design Supply Air Humidity Ratio {kg-H2O/kg-air}
  0.008,                                  !- Zone Heating Design Supply Air Humidity Ratio {kg-H2O/kg-air}
  ,                                       !- Zone Heating Sizing Factor
  ,                                       !- Zone Cooling Sizing Factor
  DesignDay,                              !- Cooling Design Air Flow Method
  ,                                       !- Cooling Design Air Flow Rate {m3/s}
  ,                                       !- Cooling Minimum Air Flow per Zone Floor Area {m3/s-m2}
  ,                                       !- Cooling Minimum Air Flow {m3/s}
  ,                                       !- Cooling Minimum Air Flow Fraction
  DesignDay,                              !- Heating Design Air Flow Method
  ,                                       !- Heating Design Air Flow Rate {m3/s}
  ,                                       !- Heating Maximum Air Flow per Zone Floor Area {m3/s-m2}
  ,                                       !- Heating Maximum Air Flow {m3/s}
  ,                                       !- Heating Maximum Air Flow Fraction
  ,                                       !- Design Zone Air Distribution Effectiveness in Cooling Mode
  ,                                       !- Design Zone Air Distribution Effectiveness in Heating Mode
  No,                                     !- Account for Dedicated Outdoor Air System
  NeutralSupplyAir,                       !- Dedicated Outdoor Air System Control Strategy
  autosize,                               !- Dedicated Outdoor Air Low Setpoint Temperature for Design {C}
  autosize;                               !- Dedicated Outdoor Air High Setpoint Temperature for Design {C}

OS:ZoneHVAC:EquipmentList,
  {1804b210-13a8-4d4c-b346-9b470fcaf899}, !- Handle
  Zone HVAC Equipment List 1,             !- Name
  {ff634789-3b5c-4747-98c9-153c63b0c8b5}; !- Thermal Zone

OS:SubSurface,
  {9a64a963-542f-4ad7-ac7f-554e5c36afb0}, !- Handle
  Sub Surface 1,                          !- Name
  FixedWindow,                            !- Sub Surface Type
  ,                                       !- Construction Name
  {f3a11a49-3684-4976-b6c9-89d98555fb58}, !- Surface Name
  ,                                       !- Outside Boundary Condition Object
  ,                                       !- View Factor to Ground
  ,                                       !- Shading Control Name
  ,                                       !- Frame and Divider Name
  ,                                       !- Multiplier
  ,                                       !- Number of Vertices
  0.0254, 0, 2.60081321311226,            !- X,Y,Z Vertex 1 {m}
  0.0254, 0, 1,                           !- X,Y,Z Vertex 2 {m}
  99.9746, 0, 1,                          !- X,Y,Z Vertex 3 {m}
  99.9746, 0, 2.60081321311226;           !- X,Y,Z Vertex 4 {m}

OS:SubSurface,
  {aeac18fb-4d6c-423d-a817-cf9b1c00016b}, !- Handle
  Sub Surface 2,                          !- Name
  FixedWindow,                            !- Sub Surface Type
  ,                                       !- Construction Name
  {1c3f52ee-b008-4421-b00f-956c90631c73}, !- Surface Name
  ,                                       !- Outside Boundary Condition Object
  ,                                       !- View Factor to Ground
  ,                                       !- Shading Control Name
  ,                                       !- Frame and Divider Name
  ,                                       !- Multiplier
  ,                                       !- Number of Vertices
  100, 0.0254, 2.60162725328934,          !- X,Y,Z Vertex 1 {m}
  100, 0.0254, 1,                         !- X,Y,Z Vertex 2 {m}
  100, 49.9746, 1,                        !- X,Y,Z Vertex 3 {m}
  100, 49.9746, 2.60162725328934;         !- X,Y,Z Vertex 4 {m}

OS:SubSurface,
  {6a6e99aa-2e7f-4423-9c01-4863ae23bf98}, !- Handle
  Sub Surface 3,                          !- Name
  FixedWindow,                            !- Sub Surface Type
  ,                                       !- Construction Name
  {7dea40be-c108-4a25-b6bc-ec2bb026f449}, !- Surface Name
  ,                                       !- Outside Boundary Condition Object
  ,                                       !- View Factor to Ground
  ,                                       !- Shading Control Name
  ,                                       !- Frame and Divider Name
  ,                                       !- Multiplier
  ,                                       !- Number of Vertices
  99.9746, 50, 2.60081321311226,          !- X,Y,Z Vertex 1 {m}
  99.9746, 50, 1,                         !- X,Y,Z Vertex 2 {m}
  0.0253999999999905, 50, 1,              !- X,Y,Z Vertex 3 {m}
  0.0253999999999905, 50, 2.60081321311226; !- X,Y,Z Vertex 4 {m}

OS:SubSurface,
  {5739ca96-ccb1-449e-aeb0-a6341a6e9a8f}, !- Handle
  Sub Surface 4,                          !- Name
  FixedWindow,                            !- Sub Surface Type
  ,                                       !- Construction Name
  {e37aef67-72e3-46c3-b6af-57b590369182}, !- Surface Name
  ,                                       !- Outside Boundary Condition Object
  ,                                       !- View Factor to Ground
  ,                                       !- Shading Control Name
  ,                                       !- Frame and Divider Name
  ,                                       !- Multiplier
  ,                                       !- Number of Vertices
  0, 49.9746, 2.60162725328934,           !- X,Y,Z Vertex 1 {m}
  0, 49.9746, 1,                          !- X,Y,Z Vertex 2 {m}
  0, 0.0254000000000048, 1,               !- X,Y,Z Vertex 3 {m}
  0, 0.0254000000000048, 2.60162725328934; !- X,Y,Z Vertex 4 {m}

OS:DefaultConstructionSet,
  {f0c7364d-4547-4cf3-8ec9-7927b021440c}, !- Handle
  ASHRAE_189.1-2009_ClimateZone 4-5 (mdoff)_ConstSet, !- Name
  {59c76f54-d7ca-4697-a1ab-e47c303ebaf4}, !- Default Exterior Surface Constructions Name
  {6d5e818e-9b12-4b2f-b330-802cc90e6cd7}, !- Default Interior Surface Constructions Name
  {281f8c2f-a0a1-467b-b6d7-9feac26ea9a9}, !- Default Ground Contact Surface Constructions Name
  {591a7be2-d008-415c-a4f8-839c8fdd3f22}, !- Default Exterior SubSurface Constructions Name
  {1b8e0b03-5c0d-4003-b893-42f53913cbf4}, !- Default Interior SubSurface Constructions Name
  {d84c1a28-e66d-4a84-a858-8d0270ea4107}, !- Interior Partition Construction Name
  ,                                       !- Space Shading Construction Name
  ,                                       !- Building Shading Construction Name
  ;                                       !- Site Shading Construction Name

OS:DefaultSurfaceConstructions,
  {59c76f54-d7ca-4697-a1ab-e47c303ebaf4}, !- Handle
  ASHRAE_189.1-2009_ClimateZone 4-5 (mdoff)_Exterior_DefSurfCons, !- Name
  {2dc94dcf-a550-4377-b64c-d45cce8a76ca}, !- Floor Construction Name
  {a81992e8-f001-40a7-a7a9-6d2174be1479}, !- Wall Construction Name
  {bc3ec6bd-adb3-46a1-95d3-f62a4dda0059}; !- Roof Ceiling Construction Name

OS:DefaultSurfaceConstructions,
  {6d5e818e-9b12-4b2f-b330-802cc90e6cd7}, !- Handle
  000_Interior_DefSurfCons,               !- Name
  {3703dabf-3d9e-4d1b-8845-1dc4214d8d01}, !- Floor Construction Name
  {26ee2121-fbf5-4368-94bb-a1af809c0c34}, !- Wall Construction Name
  {472f0f1b-66e4-4b14-9e2b-581ee4a8d614}; !- Roof Ceiling Construction Name

OS:DefaultSurfaceConstructions,
  {281f8c2f-a0a1-467b-b6d7-9feac26ea9a9}, !- Handle
  000_Ground_DefSurfCons,                 !- Name
  {2dc94dcf-a550-4377-b64c-d45cce8a76ca}, !- Floor Construction Name
  {2dc94dcf-a550-4377-b64c-d45cce8a76ca}, !- Wall Construction Name
  {2dc94dcf-a550-4377-b64c-d45cce8a76ca}; !- Roof Ceiling Construction Name

OS:DefaultSubSurfaceConstructions,
  {591a7be2-d008-415c-a4f8-839c8fdd3f22}, !- Handle
  ASHRAE_189.1-2009_ClimateZone 4-5 (mdoff)_Exterior_DefSubCons, !- Name
  {590f992f-00ab-4f0c-aa0b-766ed4a26708}, !- Fixed Window Construction Name
  {590f992f-00ab-4f0c-aa0b-766ed4a26708}, !- Operable Window Construction Name
  {36c4f451-b71f-416e-af1f-0660bd3ea8d4}, !- Door Construction Name
  {0dc9ea6c-272f-418c-94c3-079aa72d4ab9}, !- Glass Door Construction Name
  ,                                       !- Overhead Door Construction Name
  {0dc9ea6c-272f-418c-94c3-079aa72d4ab9}, !- Skylight Construction Name
  {f29157f1-fd33-4456-9831-c7c7572918dd}, !- Tubular Daylight Dome Construction Name
  {f29157f1-fd33-4456-9831-c7c7572918dd}; !- Tubular Daylight Diffuser Construction Name

OS:DefaultSubSurfaceConstructions,
  {1b8e0b03-5c0d-4003-b893-42f53913cbf4}, !- Handle
  000_Interior_DefSubCons,                !- Name
  {f29157f1-fd33-4456-9831-c7c7572918dd}, !- Fixed Window Construction Name
  {f29157f1-fd33-4456-9831-c7c7572918dd}, !- Operable Window Construction Name
  {01bcbb2f-689d-4c57-9aa6-9170c81b7316}, !- Door Construction Name
  {0dc9ea6c-272f-418c-94c3-079aa72d4ab9}, !- Glass Door Construction Name
  ,                                       !- Overhead Door Construction Name
  {0dc9ea6c-272f-418c-94c3-079aa72d4ab9}, !- Skylight Construction Name
  {f29157f1-fd33-4456-9831-c7c7572918dd}, !- Tubular Daylight Dome Construction Name
  {f29157f1-fd33-4456-9831-c7c7572918dd}; !- Tubular Daylight Diffuser Construction Name

OS:Construction,
  {d84c1a28-e66d-4a84-a858-8d0270ea4107}, !- Handle
  000_Interior Partition,                 !- Name
  ,                                       !- Surface Rendering Name
  {05b971c6-18a3-4430-b993-d4222e902200}; !- Layer 1

OS:Construction,
  {2dc94dcf-a550-4377-b64c-d45cce8a76ca}, !- Handle
  000_ExtSlabCarpet_4in_ClimateZone 1-8,  !- Name
  ,                                       !- Surface Rendering Name
  {573bbc3b-4b57-4840-8c85-ab76c2f3bf2a}, !- Layer 1
  {5be1c8c2-f7c3-478c-9981-52997b99391a}; !- Layer 2

OS:Construction,
  {a81992e8-f001-40a7-a7a9-6d2174be1479}, !- Handle
  ASHRAE_189.1-2009_ExtWall_SteelFrame_ClimateZone 4-8, !- Name
  ,                                       !- Surface Rendering Name
  {55459546-867d-44bf-a5fc-451173a0e71e}, !- Layer 1
  {58bcba1e-5d32-4cdd-8575-d72904c9f647}, !- Layer 2
  {ef4acd3a-16bd-4bff-b7e3-1fd4cd717af3}; !- Layer 3

OS:Construction,
  {bc3ec6bd-adb3-46a1-95d3-f62a4dda0059}, !- Handle
  ASHRAE_189.1-2009_ExtRoof_IEAD_ClimateZone 2-5, !- Name
  ,                                       !- Surface Rendering Name
  {e879e478-de67-432d-a5dd-06f5255bfa42}, !- Layer 1
  {56d8721c-f593-45d9-a050-531957110ad5}, !- Layer 2
  {6b11d3ec-4fe1-4fa2-9212-41e79541c4c5}; !- Layer 3

OS:Construction,
  {3703dabf-3d9e-4d1b-8845-1dc4214d8d01}, !- Handle
  000_Interior Floor,                     !- Name
  ,                                       !- Surface Rendering Name
  {6c801753-4ecd-4173-9888-55cc6f4793ba}, !- Layer 1
  {bdd5c054-cb0f-4a0d-b0ca-6d4de30b25ce}, !- Layer 2
  {adfa3f99-b28c-4a4b-8c33-e79e1ec2877c}; !- Layer 3

OS:Construction,
  {26ee2121-fbf5-4368-94bb-a1af809c0c34}, !- Handle
  000_Interior Wall,                      !- Name
  ,                                       !- Surface Rendering Name
  {3d49160a-0479-4b06-8fb7-cd52f0ac031d}, !- Layer 1
  {a4355ec1-52ea-4f7c-a161-dcd85670c9a3}, !- Layer 2
  {3d49160a-0479-4b06-8fb7-cd52f0ac031d}; !- Layer 3

OS:Construction,
  {472f0f1b-66e4-4b14-9e2b-581ee4a8d614}, !- Handle
  000_Interior Ceiling,                   !- Name
  ,                                       !- Surface Rendering Name
  {adfa3f99-b28c-4a4b-8c33-e79e1ec2877c}, !- Layer 1
  {bdd5c054-cb0f-4a0d-b0ca-6d4de30b25ce}, !- Layer 2
  {6c801753-4ecd-4173-9888-55cc6f4793ba}; !- Layer 3

OS:Construction,
  {590f992f-00ab-4f0c-aa0b-766ed4a26708}, !- Handle
  ASHRAE_189.1-2009_ExtWindow_ClimateZone 4-5, !- Name
  ,                                       !- Surface Rendering Name
  {b852e84f-e2a6-4988-8d26-4ac53b8ce26c}; !- Layer 1

OS:Construction,
  {36c4f451-b71f-416e-af1f-0660bd3ea8d4}, !- Handle
  000_Exterior Door,                      !- Name
  ,                                       !- Surface Rendering Name
  {3949908d-6a0e-4061-b922-627bc30abf10}, !- Layer 1
  {cd0c6b08-31ed-45b8-b73f-2bec4cc584d3}; !- Layer 2

OS:Construction,
  {0dc9ea6c-272f-418c-94c3-079aa72d4ab9}, !- Handle
  000_Exterior Window,                    !- Name
  ,                                       !- Surface Rendering Name
  {9e751ece-8cfe-45d0-bdb2-a0cf88b9006e}, !- Layer 1
  {6812f527-ab9e-4849-a7ef-45f800084964}, !- Layer 2
  {9e751ece-8cfe-45d0-bdb2-a0cf88b9006e}; !- Layer 3

OS:Construction,
  {f29157f1-fd33-4456-9831-c7c7572918dd}, !- Handle
  000_Interior Window,                    !- Name
  ,                                       !- Surface Rendering Name
  {9e751ece-8cfe-45d0-bdb2-a0cf88b9006e}; !- Layer 1

OS:Construction,
  {01bcbb2f-689d-4c57-9aa6-9170c81b7316}, !- Handle
  000_Interior Door,                      !- Name
  ,                                       !- Surface Rendering Name
  {05b971c6-18a3-4430-b993-d4222e902200}; !- Layer 1

OS:Material,
  {05b971c6-18a3-4430-b993-d4222e902200}, !- Handle
  000_G05 25mm wood,                      !- Name
  MediumSmooth,                           !- Roughness
  0.025399999999999999,                   !- Thickness
  0.14999999999999999,                    !- Conductivity
  608,                                    !- Density
  1630;                                   !- Specific Heat

OS:Material,
  {573bbc3b-4b57-4840-8c85-ab76c2f3bf2a}, !- Handle
  MAT-CC05 4 HW CONCRETE,                 !- Name
  Rough,                                  !- Roughness
  0.1016,                                 !- Thickness
  1.3109999999999999,                     !- Conductivity
  2240,                                   !- Density
  836.79999999999995,                     !- Specific Heat
  0.90000000000000002,                    !- Thermal Absorptance
  0.69999999999999996,                    !- Solar Absorptance
  0.69999999999999996;                    !- Visible Absorptance

OS:Material:NoMass,
  {5be1c8c2-f7c3-478c-9981-52997b99391a}, !- Handle
  CP02 CARPET PAD,                        !- Name
  VeryRough,                              !- Roughness
  0.2165,                                 !- Thermal Resistance
  0.90000000000000002,                    !- Thermal Absorptance
  0.69999999999999996,                    !- Solar Absorptance
  0.80000000000000004;                    !- Visible Absorptance

OS:Material:NoMass,
  {55459546-867d-44bf-a5fc-451173a0e71e}, !- Handle
  MAT-SHEATH,                             !- Name
  Rough,                                  !- Roughness
  0.36259999999999998,                    !- Thermal Resistance
  0.90000000000000002,                    !- Thermal Absorptance
  0.69999999999999996,                    !- Solar Absorptance
  0.69999999999999996;                    !- Visible Absorptance

OS:Material,
  {58bcba1e-5d32-4cdd-8575-d72904c9f647}, !- Handle
  Wall Insulation [39],                   !- Name
  MediumRough,                            !- Roughness
  0.11840000000000001,                    !- Thickness
  0.044999999999999998,                   !- Conductivity
  265,                                    !- Density
  836.79999999999995,                     !- Specific Heat
  0.90000000000000002,                    !- Thermal Absorptance
  0.69999999999999996,                    !- Solar Absorptance
  0.69999999999999996;                    !- Visible Absorptance

OS:Material,
  {ef4acd3a-16bd-4bff-b7e3-1fd4cd717af3}, !- Handle
  1/2IN Gypsum,                           !- Name
  Smooth,                                 !- Roughness
  0.012699999999999999,                   !- Thickness
  0.16,                                   !- Conductivity
  784.89999999999998,                     !- Density
  830,                                    !- Specific Heat
  0.90000000000000002,                    !- Thermal Absorptance
  0.92000000000000004,                    !- Solar Absorptance
  0.92000000000000004;                    !- Visible Absorptance

OS:Material,
  {e879e478-de67-432d-a5dd-06f5255bfa42}, !- Handle
  Roof Membrane,                          !- Name
  VeryRough,                              !- Roughness
  0.0094999999999999998,                  !- Thickness
  0.16,                                   !- Conductivity
  1121.29,                                !- Density
  1460,                                   !- Specific Heat
  0.90000000000000002,                    !- Thermal Absorptance
  0.69999999999999996,                    !- Solar Absorptance
  0.69999999999999996;                    !- Visible Absorptance

OS:Material,
  {56d8721c-f593-45d9-a050-531957110ad5}, !- Handle
  Roof Insulation [21],                   !- Name
  MediumRough,                            !- Roughness
  0.21049999999999999,                    !- Thickness
  0.049000000000000002,                   !- Conductivity
  265,                                    !- Density
  836.79999999999995,                     !- Specific Heat
  0.90000000000000002,                    !- Thermal Absorptance
  0.69999999999999996,                    !- Solar Absorptance
  0.69999999999999996;                    !- Visible Absorptance

OS:Material,
  {6b11d3ec-4fe1-4fa2-9212-41e79541c4c5}, !- Handle
  Metal Decking,                          !- Name
  MediumSmooth,                           !- Roughness
  0.0015,                                 !- Thickness
  45.006,                                 !- Conductivity
  7680,                                   !- Density
  418.39999999999998,                     !- Specific Heat
  0.90000000000000002,                    !- Thermal Absorptance
  0.69999999999999996,                    !- Solar Absorptance
  0.29999999999999999;                    !- Visible Absorptance

OS:Material,
  {6c801753-4ecd-4173-9888-55cc6f4793ba}, !- Handle
  000_F16 Acoustic tile,                  !- Name
  MediumSmooth,                           !- Roughness
  0.019099999999999999,                   !- Thickness
  0.059999999999999998,                   !- Conductivity
  368,                                    !- Density
  590;                                    !- Specific Heat

OS:Material:AirGap,
  {bdd5c054-cb0f-4a0d-b0ca-6d4de30b25ce}, !- Handle
  000_F05 Ceiling air space resistance,   !- Name
  0.17999999999999999;                    !- Thermal Resistance

OS:Material,
  {adfa3f99-b28c-4a4b-8c33-e79e1ec2877c}, !- Handle
  000_M11 100mm lightweight concrete,     !- Name
  MediumRough,                            !- Roughness
  0.1016,                                 !- Thickness
  0.53000000000000003,                    !- Conductivity
  1280,                                   !- Density
  840;                                    !- Specific Heat

OS:Material,
  {3d49160a-0479-4b06-8fb7-cd52f0ac031d}, !- Handle
  000_G01a 19mm gypsum board,             !- Name
  MediumSmooth,                           !- Roughness
  0.019,                                  !- Thickness
  0.16,                                   !- Conductivity
  800,                                    !- Density
  1090;                                   !- Specific Heat

OS:Material:AirGap,
  {a4355ec1-52ea-4f7c-a161-dcd85670c9a3}, !- Handle
  000_F04 Wall air space resistance,      !- Name
  0.14999999999999999;                    !- Thermal Resistance

OS:WindowMaterial:Glazing,
  {b852e84f-e2a6-4988-8d26-4ac53b8ce26c}, !- Handle
  Theoretical Glass [207],                !- Name
  SpectralAverage,                        !- Optical Data Type
  ,                                       !- Window Glass Spectral Data Set Name
  0.0030000000000000001,                  !- Thickness
  0.33110000000000001,                    !- Solar Transmittance at Normal Incidence