
OS:Version,
  {1a6f9cae-4571-412b-bc9c-3ccf0c225f8d}, !- Handle
  2.2.1;                                  !- Version Identifier

OS:BuildingStory,
  {46e73f14-db4c-49de-b656-af84125b9c03}, !- Handle
  Story 1,                                !- Name
  0,                                      !- Nominal Z Coordinate {m}
  4,                                      !- Nominal Floor to Floor Height {m}
  ,                                       !- Default Construction Set Name
  ,                                       !- Default Schedule Set Name
  ;                                       !- Group Rendering Name

OS:Space,
  {44cfa64b-96b3-4818-be3c-3f4e9c1b3cac}, !- Handle
  Story 1 Core Space,                     !- Name
  ,                                       !- Space Type Name
  ,                                       !- Default Construction Set Name
  ,                                       !- Default Schedule Set Name
  -0,                                     !- Direction of Relative North {deg}
  0,                                      !- X Origin {m}
  0,                                      !- Y Origin {m}
  0,                                      !- Z Origin {m}
  {46e73f14-db4c-49de-b656-af84125b9c03}, !- Building Story Name
  {e4e4f559-d952-4ef5-bc1b-1db277426e07}; !- Thermal Zone Name

OS:Surface,
  {cbb8579b-413d-4948-adf0-1a550c6fa7f4}, !- Handle
  Surface 1,                              !- Name
  Floor,                                  !- Surface Type
  ,                                       !- Construction Name
  {44cfa64b-96b3-4818-be3c-3f4e9c1b3cac}, !- Space Name
  Ground,                                 !- Outside Boundary Condition
  ,                                       !- Outside Boundary Condition Object
  NoSun,                                  !- Sun Exposure
  NoWind,                                 !- Wind Exposure
  ,                                       !- View Factor to Ground
  ,                                       !- Number of Vertices
  0, 0, 0,                                !- X,Y,Z Vertex 1 {m}
  0, 50, 0,                               !- X,Y,Z Vertex 2 {m}
  100, 50, 0,                             !- X,Y,Z Vertex 3 {m}
  100, 0, 0;                              !- X,Y,Z Vertex 4 {m}

OS:Surface,
  {4fc090a3-db9a-474e-b8d1-e9e714287edd}, !- Handle
  Surface 2,                              !- Name
  Wall,                                   !- Surface Type
  ,                                       !- Construction Name
  {44cfa64b-96b3-4818-be3c-3f4e9c1b3cac}, !- Space Name
  Outdoors,                               !- Outside Boundary Condition
  ,                                       !- Outside Boundary Condition Object
  SunExposed,                             !- Sun Exposure
  WindExposed,                            !- Wind Exposure
  ,                                       !- View Factor to Ground
  ,                                       !- Number of Vertices
  0, 50, 4,                               !- X,Y,Z Vertex 1 {m}
  0, 50, 0,                               !- X,Y,Z Vertex 2 {m}
  0, 0, 0,                                !- X,Y,Z Vertex 3 {m}
  0, 0, 4;                                !- X,Y,Z Vertex 4 {m}

OS:Surface,
  {0c8fd6e2-d3b9-4ca6-86c8-c3640ec309b7}, !- Handle
  Surface 3,                              !- Name
  Wall,                                   !- Surface Type
  ,                                       !- Construction Name
  {44cfa64b-96b3-4818-be3c-3f4e9c1b3cac}, !- Space Name
  Outdoors,                               !- Outside Boundary Condition
  ,                                       !- Outside Boundary Condition Object
  SunExposed,                             !- Sun Exposure
  WindExposed,                            !- Wind Exposure
  ,                                       !- View Factor to Ground
  ,                                       !- Number of Vertices
  100, 50, 4,                             !- X,Y,Z Vertex 1 {m}
  100, 50, 0,                             !- X,Y,Z Vertex 2 {m}
  0, 50, 0,                               !- X,Y,Z Vertex 3 {m}
  0, 50, 4;                               !- X,Y,Z Vertex 4 {m}

OS:Surface,
  {11c9e083-9545-4382-baf0-a6175ab062e3}, !- Handle
  Surface 4,                              !- Name
  Wall,                                   !- Surface Type
  ,                                       !- Construction Name
  {44cfa64b-96b3-4818-be3c-3f4e9c1b3cac}, !- Space Name
  Outdoors,                               !- Outside Boundary Condition
  ,                                       !- Outside Boundary Condition Object
  SunExposed,                             !- Sun Exposure
  WindExposed,                            !- Wind Exposure
  ,                                       !- View Factor to Ground
  ,                                       !- Number of Vertices
  100, 0, 4,                              !- X,Y,Z Vertex 1 {m}
  100, 0, 0,                              !- X,Y,Z Vertex 2 {m}
  100, 50, 0,                             !- X,Y,Z Vertex 3 {m}
  100, 50, 4;                             !- X,Y,Z Vertex 4 {m}

OS:Surface,
  {af477b52-196d-450c-a4aa-337bcbea827f}, !- Handle
  Surface 5,                              !- Name
  Wall,                                   !- Surface Type
  ,                                       !- Construction Name
  {44cfa64b-96b3-4818-be3c-3f4e9c1b3cac}, !- Space Name
  Outdoors,                               !- Outside Boundary Condition
  ,                                       !- Outside Boundary Condition Object
  SunExposed,                             !- Sun Exposure
  WindExposed,                            !- Wind Exposure
  ,                                       !- View Factor to Ground
  ,                                       !- Number of Vertices
  0, 0, 4,                                !- X,Y,Z Vertex 1 {m}
  0, 0, 0,                                !- X,Y,Z Vertex 2 {m}
  100, 0, 0,                              !- X,Y,Z Vertex 3 {m}
  100, 0, 4;                              !- X,Y,Z Vertex 4 {m}

OS:Surface,
  {7a0a2a03-b2dc-487c-aaf4-5565d2e0f4db}, !- Handle
  Surface 6,                              !- Name
  RoofCeiling,                            !- Surface Type
  ,                                       !- Construction Name
  {44cfa64b-96b3-4818-be3c-3f4e9c1b3cac}, !- Space Name
  Outdoors,                               !- Outside Boundary Condition
  ,                                       !- Outside Boundary Condition Object
  SunExposed,                             !- Sun Exposure
  WindExposed,                            !- Wind Exposure
  ,                                       !- View Factor to Ground
  ,                                       !- Number of Vertices
  100, 0, 4,                              !- X,Y,Z Vertex 1 {m}
  100, 50, 4,                             !- X,Y,Z Vertex 2 {m}
  0, 50, 4,                               !- X,Y,Z Vertex 3 {m}
  0, 0, 4;                                !- X,Y,Z Vertex 4 {m}

OS:ThermalZone,
  {e4e4f559-d952-4ef5-bc1b-1db277426e07}, !- Handle
  Story 1 Core Thermal Zone,              !- Name
  ,                                       !- Multiplier
  ,                                       !- Ceiling Height {m}
  ,                                       !- Volume {m3}
  ,                                       !- Floor Area {m2}
  ,                                       !- Zone Inside Convection Algorithm
  ,                                       !- Zone Outside Convection Algorithm
  ,                                       !- Zone Conditioning Equipment List Name
  {8a8f4526-e2d6-40e5-ab3e-065f6d285a3d}, !- Zone Air Inlet Port List
  {b8cf38ff-26f4-49da-9472-0b677b1c241b}, !- Zone Air Exhaust Port List
  {5502046f-31e8-4a7e-9f74-5d1f617e1816}, !- Zone Air Node Name
  ,                                       !- Zone Return Air Node Name
  ,                                       !- Primary Daylighting Control Name
  ,                                       !- Fraction of Zone Controlled by Primary Daylighting Control
  ,                                       !- Secondary Daylighting Control Name
  ,                                       !- Fraction of Zone Controlled by Secondary Daylighting Control
  ,                                       !- Illuminance Map Name
  ,                                       !- Group Rendering Name
  ,                                       !- Thermostat Name
  No;                                     !- Use Ideal Air Loads

OS:Node,
  {f0a71de5-5859-4550-8921-ac7569952cd1}, !- Handle
  Node 1,                                 !- Name
  {5502046f-31e8-4a7e-9f74-5d1f617e1816}, !- Inlet Port
  ;                                       !- Outlet Port

OS:Connection,
  {5502046f-31e8-4a7e-9f74-5d1f617e1816}, !- Handle
  {e8ed014b-ef3d-4e7f-95ae-6a662995000e}, !- Name
  {e4e4f559-d952-4ef5-bc1b-1db277426e07}, !- Source Object
  11,                                     !- Outlet Port
  {f0a71de5-5859-4550-8921-ac7569952cd1}, !- Target Object
  2;                                      !- Inlet Port

OS:PortList,
  {8a8f4526-e2d6-40e5-ab3e-065f6d285a3d}, !- Handle
  {22a53bf9-acdd-4fe2-9146-b65f2b5fba5b}, !- Name
  {e4e4f559-d952-4ef5-bc1b-1db277426e07}; !- HVAC Component

OS:PortList,
  {b8cf38ff-26f4-49da-9472-0b677b1c241b}, !- Handle
  {1e73708d-bb57-4d07-93fd-828e41378b77}, !- Name
  {e4e4f559-d952-4ef5-bc1b-1db277426e07}; !- HVAC Component

OS:Sizing:Zone,
  {7135aa51-d55e-4ec1-996a-3b998d241b9c}, !- Handle
  {e4e4f559-d952-4ef5-bc1b-1db277426e07}, !- Zone or ZoneList Name
  SupplyAirTemperature,                   !- Zone Cooling Design Supply Air Temperature Input Method
  14,                                     !- Zone Cooling Design Supply Air Temperature {C}
  11.11,                                  !- Zone Cooling Design Supply Air Temperature Difference {deltaC}
  SupplyAirTemperature,                   !- Zone Heating Design Supply Air Temperature Input Method
  40,                                     !- Zone Heating Design Supply Air Temperature {C}
  11.11,                                  !- Zone Heating Design Supply Air Temperature Difference {deltaC}
  0.0085,                                 !- Zone Cooling Design Supply Air Humidity Ratio {kg-H2O/kg-air}
  0.008,                                  !- Zone Heating Design Supply Air Humidity Ratio {kg-H2O/kg-air}
  ,                                       !- Zone Heating Sizing Factor
  ,                                       !- Zone Cooling Sizing Factor
  DesignDay,                              !- Cooling Design Air Flow Method
  ,                                       !- Cooling Design Air Flow Rate {m3/s}
  ,                                       !- Cooling Minimum Air Flow per Zone Floor Area {m3/s-m2}
  ,                                       !- Cooling Minimum Air Flow {m3/s}
  ,                                       !- Cooling Minimum Air Flow Fraction
  DesignDay,                              !- Heating Design Air Flow Method
  ,                                       !- Heating Design Air Flow Rate {m3/s}
  ,                                       !- Heating Maximum Air Flow per Zone Floor Area {m3/s-m2}
  ,                                       !- Heating Maximum Air Flow {m3/s}
  ,                                       !- Heating Maximum Air Flow Fraction
  ,                                       !- Design Zone Air Distribution Effectiveness in Cooling Mode
  ,                                       !- Design Zone Air Distribution Effectiveness in Heating Mode
  No,                                     !- Account for Dedicated Outdoor Air System
  NeutralSupplyAir,                       !- Dedicated Outdoor Air System Control Strategy
  autosize,                               !- Dedicated Outdoor Air Low Setpoint Temperature for Design {C}
  autosize;                               !- Dedicated Outdoor Air High Setpoint Temperature for Design {C}

OS:ZoneHVAC:EquipmentList,
  {ac199b24-408c-4800-b05d-d43bb1b5b1ac}, !- Handle
  Zone HVAC Equipment List 1,             !- Name
  {e4e4f559-d952-4ef5-bc1b-1db277426e07}; !- Thermal Zone

OS:SubSurface,
  {10331bec-4f19-4f00-87be-fb911c4f93ca}, !- Handle
  Sub Surface 1,                          !- Name
  FixedWindow,                            !- Sub Surface Type
  ,                                       !- Construction Name
  {0c8fd6e2-d3b9-4ca6-86c8-c3640ec309b7}, !- Surface Name
  ,                                       !- Outside Boundary Condition Object
  ,                                       !- View Factor to Ground
  ,                                       !- Shading Control Name
  ,                                       !- Frame and Divider Name
  ,                                       !- Multiplier
  ,                                       !- Number of Vertices
  99.9746, 50, 2.60081321311226,          !- X,Y,Z Vertex 1 {m}
  99.9746, 50, 1,                         !- X,Y,Z Vertex 2 {m}
  0.0253999999999905, 50, 1,              !- X,Y,Z Vertex 3 {m}
  0.0253999999999905, 50, 2.60081321311226; !- X,Y,Z Vertex 4 {m}

OS:SubSurface,
  {aaef4585-060c-4e73-b905-f6d30dc1069a}, !- Handle
  Sub Surface 2,                          !- Name
  FixedWindow,                            !- Sub Surface Type
  ,                                       !- Construction Name
  {11c9e083-9545-4382-baf0-a6175ab062e3}, !- Surface Name
  ,                                       !- Outside Boundary Condition Object
  ,                                       !- View Factor to Ground
  ,                                       !- Shading Control Name
  ,                                       !- Frame and Divider Name
  ,                                       !- Multiplier
  ,                                       !- Number of Vertices
  100, 0.0254, 2.60162725328934,          !- X,Y,Z Vertex 1 {m}
  100, 0.0254, 1,                         !- X,Y,Z Vertex 2 {m}
  100, 49.9746, 1,                        !- X,Y,Z Vertex 3 {m}
  100, 49.9746, 2.60162725328934;         !- X,Y,Z Vertex 4 {m}

OS:SubSurface,
  {b6a68fce-8ce8-459f-8f13-a2886666fd12}, !- Handle
  Sub Surface 3,                          !- Name
  FixedWindow,                            !- Sub Surface Type
  ,                                       !- Construction Name
  {4fc090a3-db9a-474e-b8d1-e9e714287edd}, !- Surface Name
  ,                                       !- Outside Boundary Condition Object
  ,                                       !- View Factor to Ground
  ,                                       !- Shading Control Name
  ,                                       !- Frame and Divider Name
  ,                                       !- Multiplier
  ,                                       !- Number of Vertices
  0, 49.9746, 2.60162725328934,           !- X,Y,Z Vertex 1 {m}
  0, 49.9746, 1,                          !- X,Y,Z Vertex 2 {m}
  0, 0.0254000000000048, 1,               !- X,Y,Z Vertex 3 {m}
  0, 0.0254000000000048, 2.60162725328934; !- X,Y,Z Vertex 4 {m}

OS:SubSurface,
  {02803707-b10d-493e-8aee-c2a055782fa7}, !- Handle
  Sub Surface 4,                          !- Name
  FixedWindow,                            !- Sub Surface Type
  ,                                       !- Construction Name
  {af477b52-196d-450c-a4aa-337bcbea827f}, !- Surface Name
  ,                                       !- Outside Boundary Condition Object
  ,                                       !- View Factor to Ground
  ,                                       !- Shading Control Name
  ,                                       !- Frame and Divider Name
  ,                                       !- Multiplier
  ,                                       !- Number of Vertices
  0.0254, 0, 2.60081321311226,            !- X,Y,Z Vertex 1 {m}
  0.0254, 0, 1,                           !- X,Y,Z Vertex 2 {m}
  99.9746, 0, 1,                          !- X,Y,Z Vertex 3 {m}
  99.9746, 0, 2.60081321311226;           !- X,Y,Z Vertex 4 {m}

OS:DefaultConstructionSet,
  {0d8084f8-28cd-4a6a-8ad2-d6b8b5424564}, ! Handle
  ASHRAE_189.1-2009_ClimateZone 4-5 (mdoff)_ConstSet, ! Name
  {e8d4fe0a-3698-4732-b97f-3311a1544a94}, ! Default Exterior Surface Constructions Name
  {13ed0b61-377c-4296-b67e-0ace6714a094}, ! Default Interior Surface Constructions Name
  {ccbad9e0-dc19-4e1f-8ba5-fab58b26f4f4}, ! Default Ground Contact Surface Constructions Name
  {120b319e-6807-4614-8271-556e72dfddc6}, ! Default Exterior SubSurface Constructions Name
  {6a3c8f8f-f689-482a-b1ca-0ceedca649f6}, ! Default Interior SubSurface Constructions Name
  {ca3732c0-ad58-4abd-947e-2fd5aeb80417}, ! Interior Partition Construction Name
  ,                                       ! Space Shading Construction Name
  ,                                       ! Building Shading Construction Name
  ;                                       ! Site Shading Construction Name

OS:DefaultSurfaceConstructions,
  {e8d4fe0a-3698-4732-b97f-3311a1544a94}, ! Handle
  ASHRAE_189.1-2009_ClimateZone 4-5 (mdoff)_Exterior_DefSurfCons, ! Name
  {10b5d611-5a70-4681-bd32-3d00cee8208e}, ! Floor Construction Name
  {7d12871c-9e16-40ef-a26c-b0c94965eac7}, ! Wall Construction Name
  {36d6721f-9326-44c9-af31-2b54f54d5e04}; ! Roof Ceiling Construction Name

OS:DefaultSurfaceConstructions,
  {13ed0b61-377c-4296-b67e-0ace6714a094}, ! Handle
  000_Interior_DefSurfCons,               ! Name
  {790656a8-c580-4198-91bd-cd97deb2a320}, ! Floor Construction Name
  {7ca60b43-d790-4606-a54b-2924a68078aa}, ! Wall Construction Name
  {bce77d08-d82d-4e06-aeb2-454d68cab445}; ! Roof Ceiling Construction Name

OS:DefaultSurfaceConstructions,
  {ccbad9e0-dc19-4e1f-8ba5-fab58b26f4f4}, ! Handle
  000_Ground_DefSurfCons,                 ! Name
  {10b5d611-5a70-4681-bd32-3d00cee8208e}, ! Floor Construction Name
  {10b5d611-5a70-4681-bd32-3d00cee8208e}, ! Wall Construction Name
  {10b5d611-5a70-4681-bd32-3d00cee8208e}; ! Roof Ceiling Construction Name

OS:DefaultSubSurfaceConstructions,
  {120b319e-6807-4614-8271-556e72dfddc6}, ! Handle
  ASHRAE_189.1-2009_ClimateZone 4-5 (mdoff)_Exterior_DefSubCons, ! Name
  {02a677bf-5b4e-49d7-8cb7-beb01c3d3918}, ! Fixed Window Construction Name
  {02a677bf-5b4e-49d7-8cb7-beb01c3d3918}, ! Operable Window Construction Name
  {d682447a-bf6a-47b6-8dd7-0542e3e1fcc8}, ! Door Construction Name
  {0dc0dc66-b69c-4f57-bb35-a1ab958dac9b}, ! Glass Door Construction Name
  ,                                       ! Overhead Door Construction Name
  {0dc0dc66-b69c-4f57-bb35-a1ab958dac9b}, ! Skylight Construction Name
  {f4cef22b-bcff-4583-8269-521711f16fd0}, ! Tubular Daylight Dome Construction Name
  {f4cef22b-bcff-4583-8269-521711f16fd0}; ! Tubular Daylight Diffuser Construction Name

OS:DefaultSubSurfaceConstructions,
  {6a3c8f8f-f689-482a-b1ca-0ceedca649f6}, ! Handle
  000_Interior_DefSubCons,                ! Name
  {f4cef22b-bcff-4583-8269-521711f16fd0}, ! Fixed Window Construction Name
  {f4cef22b-bcff-4583-8269-521711f16fd0}, ! Operable Window Construction Name
  {af46fe67-097a-4a99-b749-9c5a786668c0}, ! Door Construction Name
  {0dc0dc66-b69c-4f57-bb35-a1ab958dac9b}, ! Glass Door Construction Name
  ,                                       ! Overhead Door Construction Name
  {0dc0dc66-b69c-4f57-bb35-a1ab958dac9b}, ! Skylight Construction Name
  {f4cef22b-bcff-4583-8269-521711f16fd0}, ! Tubular Daylight Dome Construction Name
  {f4cef22b-bcff-4583-8269-521711f16fd0}; ! Tubular Daylight Diffuser Construction Name

OS:Construction,
  {ca3732c0-ad58-4abd-947e-2fd5aeb80417}, ! Handle
  000_Interior Partition,                 ! Name
  ,                                       ! Surface Rendering Name
  {8cd58787-9b53-4395-8a48-9a2b47fde62d}; ! Layer 1

OS:Construction,
  {10b5d611-5a70-4681-bd32-3d00cee8208e}, ! Handle
  000_ExtSlabCarpet_4in_ClimateZone 1-8,  ! Name
  ,                                       ! Surface Rendering Name
  {83d1ffb4-2ba5-4775-9aa1-44313b4cdc4b}, ! Layer 1
  {cac78a2b-dedd-47b1-9b90-585b7f811645}; ! Layer 2

OS:Construction,
  {7d12871c-9e16-40ef-a26c-b0c94965eac7}, ! Handle
  ASHRAE_189.1-2009_ExtWall_SteelFrame_ClimateZone 4-8, ! Name
  ,                                       ! Surface Rendering Name
  {02a3e386-0307-4370-b833-08f099f5ed9f}, ! Layer 1
  {05b2e175-d24f-4fcf-985e-9a7e3b51818e}, ! Layer 2
  {891d473f-a819-41ca-a0aa-5b47990bad5a}; ! Layer 3

OS:Construction,
  {36d6721f-9326-44c9-af31-2b54f54d5e04}, ! Handle
  ASHRAE_189.1-2009_ExtRoof_IEAD_ClimateZone 2-5, ! Name
  ,                                       ! Surface Rendering Name
  {6c65678f-9402-4a19-9dca-5c0f25388b2a}, ! Layer 1
  {750a783b-3d44-4263-9c1e-c8938ef2058d}, ! Layer 2
  {48a35380-b213-4f4f-9581-fa7cf245b963}; ! Layer 3

OS:Construction,
  {790656a8-c580-4198-91bd-cd97deb2a320}, ! Handle
  000_Interior Floor,                     ! Name
  ,                                       ! Surface Rendering Name
  {57c6ccce-6754-4e5b-b09e-46346ee51157}, ! Layer 1
  {97b1be7d-b697-491f-9aac-10422ded8b88}, ! Layer 2
  {9a2409bb-1d5e-40c8-9665-3f361d141a65}; ! Layer 3

OS:Construction,
  {7ca60b43-d790-4606-a54b-2924a68078aa}, ! Handle
  000_Interior Wall,                      ! Name
  ,                                       ! Surface Rendering Name
  {ae8bd7ef-dd91-4d6f-8255-fc6adb61e4c5}, ! Layer 1
  {c41dc493-3dd1-4b60-ae99-266588e225ab}, ! Layer 2
  {ae8bd7ef-dd91-4d6f-8255-fc6adb61e4c5}; ! Layer 3

OS:Construction,
  {bce77d08-d82d-4e06-aeb2-454d68cab445}, ! Handle
  000_Interior Ceiling,                   ! Name
  ,                                       ! Surface Rendering Name
  {9a2409bb-1d5e-40c8-9665-3f361d141a65}, ! Layer 1
  {97b1be7d-b697-491f-9aac-10422ded8b88}, ! Layer 2
  {57c6ccce-6754-4e5b-b09e-46346ee51157}; ! Layer 3

OS:Construction,
  {02a677bf-5b4e-49d7-8cb7-beb01c3d3918}, ! Handle
  ASHRAE_189.1-2009_ExtWindow_ClimateZone 4-5, ! Name
  ,                                       ! Surface Rendering Name
  {7d4e1fe8-c63e-4c45-9518-71d0f2fdbc82}; ! Layer 1

OS:Construction,
  {d682447a-bf6a-47b6-8dd7-0542e3e1fcc8}, ! Handle
  000_Exterior Door,                      ! Name
  ,                                       ! Surface Rendering Name
  {b1b2c00b-1476-4e75-b1c8-cecfe55e531e}, ! Layer 1
  {c61847e4-1a7c-4924-83ce-92860762f63f}; ! Layer 2

OS:Construction,
  {0dc0dc66-b69c-4f57-bb35-a1ab958dac9b}, ! Handle
  000_Exterior Window,                    ! Name
  ,                                       ! Surface Rendering Name
  {667c4bfd-a3d3-4c56-9ffb-45e365c17135}, ! Layer 1
  {d2f95f03-3061-406c-af45-012b17eacd1b}, ! Layer 2
  {667c4bfd-a3d3-4c56-9ffb-45e365c17135}; ! Layer 3

OS:Construction,
  {f4cef22b-bcff-4583-8269-521711f16fd0}, ! Handle
  000_Interior Window,                    ! Name
  ,                                       ! Surface Rendering Name
  {667c4bfd-a3d3-4c56-9ffb-45e365c17135}; ! Layer 1

OS:Construction,
  {af46fe67-097a-4a99-b749-9c5a786668c0}, ! Handle
  000_Interior Door,                      ! Name
  ,                                       ! Surface Rendering Name
  {8cd58787-9b53-4395-8a48-9a2b47fde62d}; ! Layer 1

OS:Material,
  {8cd58787-9b53-4395-8a48-9a2b47fde62d}, ! Handle
  000_G05 25mm wood,                      ! Name
  MediumSmooth,                           ! Roughness
  0.025399999999999999,                   ! Thickness
  0.14999999999999999,                    ! Conductivity
  608,                                    ! Density
  1630;                                   ! Specific Heat

OS:Material,
  {83d1ffb4-2ba5-4775-9aa1-44313b4cdc4b}, ! Handle
  MAT-CC05 4 HW CONCRETE,                 ! Name
  Rough,                                  ! Roughness
  0.1016,                                 ! Thickness
  1.3109999999999999,                     ! Conductivity
  2240,                                   ! Density
  836.79999999999995,                     ! Specific Heat
  0.90000000000000002,                    ! Thermal Absorptance
  0.69999999999999996,                    ! Solar Absorptance
  0.69999999999999996;                    ! Visible Absorptance

OS:Material:NoMass,
  {cac78a2b-dedd-47b1-9b90-585b7f811645}, ! Handle
  CP02 CARPET PAD,                        ! Name
  VeryRough,                              ! Roughness
  0.2165,                                 ! Thermal Resistance
  0.90000000000000002,                    ! Thermal Absorptance
  0.69999999999999996,                    ! Solar Absorptance
  0.80000000000000004;                    ! Visible Absorptance

OS:Material:NoMass,
  {02a3e386-0307-4370-b833-08f099f5ed9f}, ! Handle
  MAT-SHEATH,                             ! Name
  Rough,                                  ! Roughness
  0.36259999999999998,                    ! Thermal Resistance
  0.90000000000000002,                    ! Thermal Absorptance
  0.69999999999999996,                    ! Solar Absorptance
  0.69999999999999996;                    ! Visible Absorptance

OS:Material,
  {05b2e175-d24f-4fcf-985e-9a7e3b51818e}, ! Handle
  Wall Insulation [39],                   ! Name
  MediumRough,                            ! Roughness
  0.11840000000000001,                    ! Thickness
  0.044999999999999998,                   ! Conductivity
  265,                                    ! Density
  836.79999999999995,                     ! Specific Heat
  0.90000000000000002,                    ! Thermal Absorptance
  0.69999999999999996,                    ! Solar Absorptance
  0.69999999999999996;                    ! Visible Absorptance

OS:Material,
  {891d473f-a819-41ca-a0aa-5b47990bad5a}, ! Handle
  1/2IN Gypsum,                           ! Name
  Smooth,                                 ! Roughness
  0.012699999999999999,                   ! Thickness
  0.16,                                   ! Conductivity
  784.89999999999998,                     ! Density
  830,                                    ! Specific Heat
  0.90000000000000002,                    ! Thermal Absorptance
  0.92000000000000004,                    ! Solar Absorptance
  0.92000000000000004;                    ! Visible Absorptance

OS:Material,
  {6c65678f-9402-4a19-9dca-5c0f25388b2a}, ! Handle
  Roof Membrane,                          ! Name
  VeryRough,                              ! Roughness
  0.0094999999999999998,                  ! Thickness
  0.16,                                   ! Conductivity
  1121.29,                                ! Density
  1460,                                   ! Specific Heat
  0.90000000000000002,                    ! Thermal Absorptance
  0.69999999999999996,                    ! Solar Absorptance
  0.69999999999999996;                    ! Visible Absorptance

OS:Material,
  {750a783b-3d44-4263-9c1e-c8938ef2058d}, ! Handle
  Roof Insulation [21],                   ! Name
  MediumRough,                            ! Roughness
  0.21049999999999999,                    ! Thickness
  0.049000000000000002,                   ! Conductivity
  265,                                    ! Density
  836.79999999999995,                     ! Specific Heat
  0.90000000000000002,                    ! Thermal Absorptance
  0.69999999999999996,                    ! Solar Absorptance
  0.69999999999999996;                    ! Visible Absorptance

OS:Material,
  {48a35380-b213-4f4f-9581-fa7cf245b963}, ! Handle
  Metal Decking,                          ! Name
  MediumSmooth,                           ! Roughness
  0.0015,                                 ! Thickness
  45.006,                                 ! Conductivity
  7680,                                   ! Density
  418.39999999999998,                     ! Specific Heat
  0.90000000000000002,                    ! Thermal Absorptance
  0.69999999999999996,                    ! Solar Absorptance
  0.29999999999999999;                    ! Visible Absorptance

OS:Material,
  {57c6ccce-6754-4e5b-b09e-46346ee51157}, ! Handle
  000_F16 Acoustic tile,                  ! Name
  MediumSmooth,                           ! Roughness
  0.019099999999999999,                   ! Thickness
  0.059999999999999998,                   ! Conductivity
  368,                                    ! Density
  590;                                    ! Specific Heat

OS:Material:AirGap,
  {97b1be7d-b697-491f-9aac-10422ded8b88}, ! Handle
  000_F05 Ceiling air space resistance,   ! Name
  0.17999999999999999;                    ! Thermal Resistance

OS:Material,
  {9a2409bb-1d5e-40c8-9665-3f361d141a65}, ! Handle
  000_M11 100mm lightweight concrete,     ! Name
  MediumRough,                            ! Roughness
  0.1016,                                 ! Thickness
  0.53000000000000003,                    ! Conductivity
  1280,                                   ! Density
  840;                                    ! Specific Heat

OS:Material,
  {ae8bd7ef-dd91-4d6f-8255-fc6adb61e4c5}, ! Handle
  000_G01a 19mm gypsum board,             ! Name
  MediumSmooth,                           ! Roughness
  0.019,                                  ! Thickness
  0.16,                                   ! Conductivity
  800,                                    ! Density
  1090;                                   ! Specific Heat

OS:Material:AirGap,
  {c41dc493-3dd1-4b60-ae99-266588e225ab}, ! Handle
  000_F04 Wall air space resistance,      ! Name
  0.14999999999999999;                    ! Thermal Resistance

OS:WindowMaterial:Glazing,
  {7d4e1fe8-c63e-4c45-9518-71d0f2fdbc82}, ! Handle
  Theoretical Glass [207],                ! Name
  SpectralAverage,                        ! Optical Data Type
  ,                                       ! Window Glass Spectral Data Set Name
  0.0030000000000000001,                  ! Thickness
  0.33110000000000001,                    ! Solar Transmittance at Normal Incidence
  0.61890000000000001,                    ! Front Side Solar Reflectance at Normal Incidence
  0.61890000000000001,                    ! Back Side Solar Reflectance at Normal Incidence
  0.44,                                   ! Visible Transmittance at Normal Incidence