
OS:Version,
  {7ce524c1-a82a-455e-b265-a5facdca8aef}, !- Handle
  1.3.0;                                  !- Version Identifier

OS:Schedule:Ruleset,
  {f5f968c7-7f6d-4067-ab80-cbc2361ac422}, !- Handle
  Refrigeration Defrost Schedule,         !- Name
  {bea5020b-73c3-469c-a55e-2c9d70cdfeb4}, !- Schedule Type Limits Name
  {b626cf87-8d9d-4194-9052-77a7c9607cd0}; !- Default Day Schedule Name

OS:Schedule:Day,
  {b626cf87-8d9d-4194-9052-77a7c9607cd0}, !- Handle
  Refrigeration Defrost Schedule Default, !- Name
  {bea5020b-73c3-469c-a55e-2c9d70cdfeb4}, !- Schedule Type Limits Name
  ,                                       !- Interpolate to Timestep
  4,                                      !- Hour 1
  0,                                      !- Minute 1
  0,                                      !- Value Until Time 1
  4,                                      !- Hour 2
  45,                                     !- Minute 2
  1,                                      !- Value Until Time 2
  8,                                      !- Hour 3
  0,                                      !- Minute 3
  0,                                      !- Value Until Time 3
  8,                                      !- Hour 4
  45,                                     !- Minute 4
  1,                                      !- Value Until Time 4
  12,                                     !- Hour 5
  0,                                      !- Minute 5
  0,                                      !- Value Until Time 5
  12,                                     !- Hour 6
  45,                                     !- Minute 6
  1,                                      !- Value Until Time 6
  16,                                     !- Hour 7
  0,                                      !- Minute 7
  0,                                      !- Value Until Time 7
  16,                                     !- Hour 8
  45,                                     !- Minute 8
  1,                                      !- Value Until Time 8
  20,                                     !- Hour 9
  0,                                      !- Minute 9
  0,                                      !- Value Until Time 9
  20,                                     !- Hour 10
  45,                                     !- Minute 10
  1,                                      !- Value Until Time 10
  24,                                     !- Hour 11
  0,                                      !- Minute 11
  0;                                      !- Value Until Time 11

OS:Schedule:Ruleset,
  {5ff19390-43f5-4be7-a8c8-d7a0663fb0d8}, !- Handle
  Air Chiller Cooling Sch,                !- Name
  {4628b420-9fe3-4c50-97f1-737a8679bdf6}, !- Schedule Type Limits Name
  {b4e5df62-8922-481b-a1c9-6dfe5fa2e624}; !- Default Day Schedule Name

OS:Schedule:Day,
  {b4e5df62-8922-481b-a1c9-6dfe5fa2e624}, !- Handle
  Air Chiller Cooling Sch Default,        !- Name
  {4628b420-9fe3-4c50-97f1-737a8679bdf6}, !- Schedule Type Limits Name
  ,                                       !- Interpolate to Timestep
  24,                                     !- Hour 1
  0,                                      !- Minute 1
  5;                                      !- Value Until Time 1

OS:Schedule:Ruleset,
  {90453c76-a452-4d9b-8bb5-b86704318234}, !- Handle
  Air Chiller Heating Sch,                !- Name
  {a40d296b-817c-49a7-b77e-3ed5f41f2b78}, !- Schedule Type Limits Name
  {ba1ca7ba-f8e4-4c9b-8ed7-c185d75674ab}; !- Default Day Schedule Name

OS:Schedule:Day,
  {ba1ca7ba-f8e4-4c9b-8ed7-c185d75674ab}, !- Handle
  Air Chiller Heating Sch Default,        !- Name
  {a40d296b-817c-49a7-b77e-3ed5f41f2b78}, !- Schedule Type Limits Name
  ,                                       !- Interpolate to Timestep
  24,                                     !- Hour 1
  0,                                      !- Minute 1
  5;                                      !- Value Until Time 1

OS:BuildingStory,
  {a7940f64-5750-4e61-8e38-0676faeefc9e}, !- Handle
  Story 1,                                !- Name
  0,                                      !- Nominal Z Coordinate {m}
  4,                                      !- Nominal Floor to Floor Height {m}
  ,                                       !- Default Construction Set Name
  ,                                       !- Default Schedule Set Name
  ;                                       !- Group Rendering Name

OS:Space,
  {2ec30b70-7e94-4bde-87c4-4e2dca923d57}, !- Handle
  Story 1 West Perimeter Space,           !- Name
  ,                                       !- Space Type Name
  ,                                       !- Default Construction Set Name
  ,                                       !- Default Schedule Set Name
  -0,                                     !- Direction of Relative North {deg}
  0,                                      !- X Origin {m}
  0,                                      !- Y Origin {m}
  0,                                      !- Z Origin {m}
  {a7940f64-5750-4e61-8e38-0676faeefc9e}, !- Building Story Name
  {08039188-c3ed-47b5-920f-f76bd31df54a}; !- Thermal Zone Name

OS:Surface,
  {39143071-98e0-45a0-8157-b8ab821e8197}, !- Handle
  Surface 1,                              !- Name
  Floor,                                  !- Surface Type
  ,                                       !- Construction Name
  {2ec30b70-7e94-4bde-87c4-4e2dca923d57}, !- Space Name
  Ground,                                 !- Outside Boundary Condition
  ,                                       !- Outside Boundary Condition Object
  NoSun,                                  !- Sun Exposure
  NoWind,                                 !- Wind Exposure
  ,                                       !- View Factor to Ground
  ,                                       !- Number of Vertices
  0, 0, 0,                                !- X,Y,Z Vertex 1 {m}
  0, 50, 0,                               !- X,Y,Z Vertex 2 {m}
  3, 47, 0,                               !- X,Y,Z Vertex 3 {m}
  3, 3, 0;                                !- X,Y,Z Vertex 4 {m}

OS:Surface,
  {ca26450d-f847-46a1-be24-c532d79c475c}, !- Handle
  Surface 2,                              !- Name
  Wall,                                   !- Surface Type
  ,                                       !- Construction Name
  {2ec30b70-7e94-4bde-87c4-4e2dca923d57}, !- Space Name
  Outdoors,                               !- Outside Boundary Condition
  ,                                       !- Outside Boundary Condition Object
  SunExposed,                             !- Sun Exposure
  WindExposed,                            !- Wind Exposure
  ,                                       !- View Factor to Ground
  ,                                       !- Number of Vertices
  0, 50, 4,                               !- X,Y,Z Vertex 1 {m}
  0, 50, 0,                               !- X,Y,Z Vertex 2 {m}
  0, 0, 0,                                !- X,Y,Z Vertex 3 {m}
  0, 0, 4;                                !- X,Y,Z Vertex 4 {m}

OS:Surface,
  {405c5c4b-23cd-4dcf-8a9b-3808af27b4f6}, !- Handle
  Surface 3,                              !- Name
  Wall,                                   !- Surface Type
  ,                                       !- Construction Name
  {2ec30b70-7e94-4bde-87c4-4e2dca923d57}, !- Space Name
  Surface,                                !- Outside Boundary Condition
  {0a127f43-b33d-444a-86c2-4b984179b021}, !- Outside Boundary Condition Object
  NoSun,                                  !- Sun Exposure
  NoWind,                                 !- Wind Exposure
  ,                                       !- View Factor to Ground
  ,                                       !- Number of Vertices
  3, 47, 4,                               !- X,Y,Z Vertex 1 {m}
  3, 47, 0,                               !- X,Y,Z Vertex 2 {m}
  0, 50, 0,                               !- X,Y,Z Vertex 3 {m}
  0, 50, 4;                               !- X,Y,Z Vertex 4 {m}

OS:Surface,
  {7a7f606f-5321-4643-82e7-a135a873f731}, !- Handle
  Surface 4,                              !- Name
  Wall,                                   !- Surface Type
  ,                                       !- Construction Name
  {2ec30b70-7e94-4bde-87c4-4e2dca923d57}, !- Space Name
  Surface,                                !- Outside Boundary Condition
  {b5e1369a-702b-424a-9f00-5ca7855f5453}, !- Outside Boundary Condition Object
  NoSun,                                  !- Sun Exposure
  NoWind,                                 !- Wind Exposure
  ,                                       !- View Factor to Ground
  ,                                       !- Number of Vertices
  3, 3, 4,                                !- X,Y,Z Vertex 1 {m}
  3, 3, 0,                                !- X,Y,Z Vertex 2 {m}
  3, 47, 0,                               !- X,Y,Z Vertex 3 {m}
  3, 47, 4;                               !- X,Y,Z Vertex 4 {m}

OS:Surface,
  {06075065-d7c7-484d-ab92-1310402eda92}, !- Handle
  Surface 5,                              !- Name
  Wall,                                   !- Surface Type
  ,                                       !- Construction Name
  {2ec30b70-7e94-4bde-87c4-4e2dca923d57}, !- Space Name
  Surface,                                !- Outside Boundary Condition
  {61d76dfd-d661-4657-b680-014181073fcf}, !- Outside Boundary Condition Object
  NoSun,                                  !- Sun Exposure
  NoWind,                                 !- Wind Exposure
  ,                                       !- View Factor to Ground
  ,                                       !- Number of Vertices
  0, 0, 4,                                !- X,Y,Z Vertex 1 {m}
  0, 0, 0,                                !- X,Y,Z Vertex 2 {m}
  3, 3, 0,                                !- X,Y,Z Vertex 3 {m}
  3, 3, 4;                                !- X,Y,Z Vertex 4 {m}

OS:Surface,
  {c9c5a59c-97c8-4fc1-908a-054b635382c1}, !- Handle
  Surface 6,                              !- Name
  RoofCeiling,                            !- Surface Type
  ,                                       !- Construction Name
  {2ec30b70-7e94-4bde-87c4-4e2dca923d57}, !- Space Name
  Outdoors,                               !- Outside Boundary Condition
  ,                                       !- Outside Boundary Condition Object
  SunExposed,                             !- Sun Exposure
  WindExposed,                            !- Wind Exposure
  ,                                       !- View Factor to Ground
  ,                                       !- Number of Vertices
  3, 3, 4,                                !- X,Y,Z Vertex 1 {m}
  3, 47, 4,                               !- X,Y,Z Vertex 2 {m}
  0, 50, 4,                               !- X,Y,Z Vertex 3 {m}
  0, 0, 4;                                !- X,Y,Z Vertex 4 {m}

OS:Space,
  {ca095848-e76a-4a46-8115-eb0198318c09}, !- Handle
  Story 1 North Perimeter Space,          !- Name
  ,                                       !- Space Type Name
  ,                                       !- Default Construction Set Name
  ,                                       !- Default Schedule Set Name
  -0,                                     !- Direction of Relative North {deg}
  3,                                      !- X Origin {m}
  47,                                     !- Y Origin {m}
  0,                                      !- Z Origin {m}
  {a7940f64-5750-4e61-8e38-0676faeefc9e}, !- Building Story Name
  {f7ca7169-f5fa-4047-8d99-9ff097237cd2}; !- Thermal Zone Name

OS:Surface,
  {f14f627c-e72d-4b61-99b2-f744ce5dc892}, !- Handle
  Surface 7,                              !- Name
  Floor,                                  !- Surface Type
  ,                                       !- Construction Name
  {ca095848-e76a-4a46-8115-eb0198318c09}, !- Space Name
  Ground,                                 !- Outside Boundary Condition
  ,                                       !- Outside Boundary Condition Object
  NoSun,                                  !- Sun Exposure
  NoWind,                                 !- Wind Exposure
  ,                                       !- View Factor to Ground
  ,                                       !- Number of Vertices
  -3, 3, 0,                               !- X,Y,Z Vertex 1 {m}
  97, 3, 0,                               !- X,Y,Z Vertex 2 {m}
  94, 0, 0,                               !- X,Y,Z Vertex 3 {m}
  0, 0, 0;                                !- X,Y,Z Vertex 4 {m}

OS:Surface,
  {e89de5da-dff5-4857-96bf-e492d9aa8efd}, !- Handle
  Surface 8,                              !- Name
  Wall,                                   !- Surface Type
  ,                                       !- Construction Name
  {ca095848-e76a-4a46-8115-eb0198318c09}, !- Space Name
  Outdoors,                               !- Outside Boundary Condition
  ,                                       !- Outside Boundary Condition Object
  SunExposed,                             !- Sun Exposure
  WindExposed,                            !- Wind Exposure
  ,                                       !- View Factor to Ground
  ,                                       !- Number of Vertices
  97, 3, 4,                               !- X,Y,Z Vertex 1 {m}
  97, 3, 0,                               !- X,Y,Z Vertex 2 {m}
  -3, 3, 0,                               !- X,Y,Z Vertex 3 {m}
  -3, 3, 4;                               !- X,Y,Z Vertex 4 {m}

OS:Surface,
  {8714984a-044d-4792-9528-561b331b8640}, !- Handle
  Surface 9,                              !- Name
  Wall,                                   !- Surface Type
  ,                                       !- Construction Name
  {ca095848-e76a-4a46-8115-eb0198318c09}, !- Space Name
  Surface,                                !- Outside Boundary Condition
  {03c89175-bc56-40c4-b813-22c30955aae4}, !- Outside Boundary Condition Object
  NoSun,                                  !- Sun Exposure
  NoWind,                                 !- Wind Exposure
  ,                                       !- View Factor to Ground
  ,                                       !- Number of Vertices
  94, 0, 4,                               !- X,Y,Z Vertex 1 {m}
  94, 0, 0,                               !- X,Y,Z Vertex 2 {m}
  97, 3, 0,                               !- X,Y,Z Vertex 3 {m}
  97, 3, 4;                               !- X,Y,Z Vertex 4 {m}

OS:Surface,
  {221b6669-259d-4b17-b939-eee6e9b7bf1c}, !- Handle
  Surface 10,                             !- Name
  Wall,                                   !- Surface Type
  ,                                       !- Construction Name
  {ca095848-e76a-4a46-8115-eb0198318c09}, !- Space Name
  Surface,                                !- Outside Boundary Condition
  {d8dcd235-e8a2-46a6-b3f0-ad9e8c4faef2}, !- Outside Boundary Condition Object
  NoSun,                                  !- Sun Exposure
  NoWind,                                 !- Wind Exposure
  ,                                       !- View Factor to Ground
  ,                                       !- Number of Vertices
  0, 0, 4,                                !- X,Y,Z Vertex 1 {m}
  0, 0, 0,                                !- X,Y,Z Vertex 2 {m}
  94, 0, 0,                               !- X,Y,Z Vertex 3 {m}
  94, 0, 4;                               !- X,Y,Z Vertex 4 {m}

OS:Surface,
  {0a127f43-b33d-444a-86c2-4b984179b021}, !- Handle
  Surface 11,                             !- Name
  Wall,                                   !- Surface Type
  ,                                       !- Construction Name
  {ca095848-e76a-4a46-8115-eb0198318c09}, !- Space Name
  Surface,                                !- Outside Boundary Condition
  {405c5c4b-23cd-4dcf-8a9b-3808af27b4f6}, !- Outside Boundary Condition Object
  NoSun,                                  !- Sun Exposure
  NoWind,                                 !- Wind Exposure
  ,                                       !- View Factor to Ground
  ,                                       !- Number of Vertices
  -3, 3, 4,                               !- X,Y,Z Vertex 1 {m}
  -3, 3, 0,                               !- X,Y,Z Vertex 2 {m}
  0, 0, 0,                                !- X,Y,Z Vertex 3 {m}
  0, 0, 4;                                !- X,Y,Z Vertex 4 {m}

OS:Surface,
  {4818b538-5394-4094-97d3-aecb0e523457}, !- Handle
  Surface 12,                             !- Name
  RoofCeiling,                            !- Surface Type
  ,                                       !- Construction Name
  {ca095848-e76a-4a46-8115-eb0198318c09}, !- Space Name
  Outdoors,                               !- Outside Boundary Condition
  ,                                       !- Outside Boundary Condition Object
  SunExposed,                             !- Sun Exposure
  WindExposed,                            !- Wind Exposure
  ,                                       !- View Factor to Ground
  ,                                       !- Number of Vertices
  0, 0, 4,                                !- X,Y,Z Vertex 1 {m}
  94, 0, 4,                               !- X,Y,Z Vertex 2 {m}
  97, 3, 4,                               !- X,Y,Z Vertex 3 {m}
  -3, 3, 4;                               !- X,Y,Z Vertex 4 {m}

OS:Space,
  {1475aeb8-4958-4791-93e2-7b03d547ea24}, !- Handle
  Story 1 East Perimeter Space,           !- Name
  ,                                       !- Space Type Name
  ,                                       !- Default Construction Set Name
  ,                                       !- Default Schedule Set Name
  -0,                                     !- Direction of Relative North {deg}
  97,                                     !- X Origin {m}
  3,                                      !- Y Origin {m}
  0,                                      !- Z Origin {m}
  {a7940f64-5750-4e61-8e38-0676faeefc9e}, !- Building Story Name
  {6e923fb8-163c-4430-aee0-b3ce2ba9fc02}; !- Thermal Zone Name

OS:Surface,
  {41ca3fe7-b073-4258-8b9b-e69c797f58c2}, !- Handle
  Surface 13,                             !- Name
  Floor,                                  !- Surface Type
  ,                                       !- Construction Name
  {1475aeb8-4958-4791-93e2-7b03d547ea24}, !- Space Name
  Ground,                                 !- Outside Boundary Condition
  ,                                       !- Outside Boundary Condition Object
  NoSun,                                  !- Sun Exposure
  NoWind,                                 !- Wind Exposure
  ,                                       !- View Factor to Ground
  ,                                       !- Number of Vertices
  3, 47, 0,                               !- X,Y,Z Vertex 1 {m}
  3, -3, 0,                               !- X,Y,Z Vertex 2 {m}
  0, 0, 0,                                !- X,Y,Z Vertex 3 {m}
  0, 44, 0;                               !- X,Y,Z Vertex 4 {m}

OS:Surface,
  {dcffe5d8-4f50-4e54-b531-8ca4338c208b}, !- Handle
  Surface 14,                             !- Name
  Wall,                                   !- Surface Type
  ,                                       !- Construction Name
  {1475aeb8-4958-4791-93e2-7b03d547ea24}, !- Space Name
  Outdoors,                               !- Outside Boundary Condition
  ,                                       !- Outside Boundary Condition Object
  SunExposed,                             !- Sun Exposure
  WindExposed,                            !- Wind Exposure
  ,                                       !- View Factor to Ground
  ,                                       !- Number of Vertices
  3, -3, 4,                               !- X,Y,Z Vertex 1 {m}
  3, -3, 0,                               !- X,Y,Z Vertex 2 {m}
  3, 47, 0,                               !- X,Y,Z Vertex 3 {m}
  3, 47, 4;                               !- X,Y,Z Vertex 4 {m}

OS:Surface,
  {0711d936-ec4d-4043-a575-8947ef852afe}, !- Handle
  Surface 15,                             !- Name
  Wall,                                   !- Surface Type
  ,                                       !- Construction Name
  {1475aeb8-4958-4791-93e2-7b03d547ea24}, !- Space Name
  Surface,                                !- Outside Boundary Condition
  {40da2245-18a7-4c40-9502-dfd0e33208ba}, !- Outside Boundary Condition Object
  NoSun,                                  !- Sun Exposure
  NoWind,                                 !- Wind Exposure
  ,                                       !- View Factor to Ground
  ,                                       !- Number of Vertices
  0, 0, 4,                                !- X,Y,Z Vertex 1 {m}
  0, 0, 0,                                !- X,Y,Z Vertex 2 {m}
  3, -3, 0,                               !- X,Y,Z Vertex 3 {m}
  3, -3, 4;                               !- X,Y,Z Vertex 4 {m}

OS:Surface,
  {eae6839d-7841-4f73-81ca-958645dcbd56}, !- Handle
  Surface 16,                             !- Name
  Wall,                                   !- Surface Type
  ,                                       !- Construction Name
  {1475aeb8-4958-4791-93e2-7b03d547ea24}, !- Space Name
  Surface,                                !- Outside Boundary Condition
  {03795840-c819-44b6-877f-c52f2d506bc6}, !- Outside Boundary Condition Object
  NoSun,                                  !- Sun Exposure
  NoWind,                                 !- Wind Exposure
  ,                                       !- View Factor to Ground
  ,                                       !- Number of Vertices
  0, 44, 4,                               !- X,Y,Z Vertex 1 {m}
  0, 44, 0,                               !- X,Y,Z Vertex 2 {m}
  0, 0, 0,                                !- X,Y,Z Vertex 3 {m}
  0, 0, 4;                                !- X,Y,Z Vertex 4 {m}

OS:Surface,
  {03c89175-bc56-40c4-b813-22c30955aae4}, !- Handle
  Surface 17,                             !- Name
  Wall,                                   !- Surface Type
  ,                                       !- Construction Name
  {1475aeb8-4958-4791-93e2-7b03d547ea24}, !- Space Name
  Surface,                                !- Outside Boundary Condition
  {8714984a-044d-4792-9528-561b331b8640}, !- Outside Boundary Condition Object
  NoSun,                                  !- Sun Exposure
  NoWind,                                 !- Wind Exposure
  ,                                       !- View Factor to Ground
  ,                                       !- Number of Vertices
  3, 47, 4,                               !- X,Y,Z Vertex 1 {m}
  3, 47, 0,                               !- X,Y,Z Vertex 2 {m}
  0, 44, 0,                               !- X,Y,Z Vertex 3 {m}
  0, 44, 4;                               !- X,Y,Z Vertex 4 {m}

OS:Surface,
  {77d070e6-b69a-4b75-b74f-59793ca31e44}, !- Handle
  Surface 18,                             !- Name
  RoofCeiling,                            !- Surface Type
  ,                                       !- Construction Name
  {1475aeb8-4958-4791-93e2-7b03d547ea24}, !- Space Name
  Outdoors,                               !- Outside Boundary Condition
  ,                                       !- Outside Boundary Condition Object
  SunExposed,                             !- Sun Exposure
  WindExposed,                            !- Wind Exposure
  ,                                       !- View Factor to Ground
  ,                                       !- Number of Vertices
  0, 44, 4,                               !- X,Y,Z Vertex 1 {m}
  0, 0, 4,                                !- X,Y,Z Vertex 2 {m}
  3, -3, 4,                               !- X,Y,Z Vertex 3 {m}
  3, 47, 4;                               !- X,Y,Z Vertex 4 {m}

OS:Space,
  {d241ccbb-5c5e-4426-8baf-b7985a31c23b}, !- Handle
  Story 1 South Perimeter Space,          !- Name
  ,                                       !- Space Type Name
  ,                                       !- Default Construction Set Name
  ,                                       !- Default Schedule Set Name
  -0,                                     !- Direction of Relative North {deg}
  0,                                      !- X Origin {m}
  0,                                      !- Y Origin {m}
  0,                                      !- Z Origin {m}
  {a7940f64-5750-4e61-8e38-0676faeefc9e}, !- Building Story Name
  {fa9d16ae-2ed3-4316-910e-e924b53cbda6}; !- Thermal Zone Name

OS:Surface,
  {e7270c75-ba25-42d7-b279-21aca2faa46b}, !- Handle
  Surface 19,                             !- Name
  Floor,                                  !- Surface Type
  ,                                       !- Construction Name
  {d241ccbb-5c5e-4426-8baf-b7985a31c23b}, !- Space Name
  Ground,                                 !- Outside Boundary Condition
  ,                                       !- Outside Boundary Condition Object
  NoSun,                                  !- Sun Exposure
  NoWind,                                 !- Wind Exposure
  ,                                       !- View Factor to Ground
  ,                                       !- Number of Vertices
  100, 0, 0,                              !- X,Y,Z Vertex 1 {m}
  0, 0, 0,                                !- X,Y,Z Vertex 2 {m}
  3, 3, 0,                                !- X,Y,Z Vertex 3 {m}
  97, 3, 0;                               !- X,Y,Z Vertex 4 {m}

OS:Surface,
  {d4ff36e5-88ca-48b3-a258-e61ebd6fd3c3}, !- Handle
  Surface 20,                             !- Name
  Wall,                                   !- Surface Type
  ,                                       !- Construction Name
  {d241ccbb-5c5e-4426-8baf-b7985a31c23b}, !- Space Name
  Outdoors,                               !- Outside Boundary Condition
  ,                                       !- Outside Boundary Condition Object
  SunExposed,                             !- Sun Exposure
  WindExposed,                            !- Wind Exposure
  ,                                       !- View Factor to Ground
  ,                                       !- Number of Vertices
  0, 0, 4,                                !- X,Y,Z Vertex 1 {m}
  0, 0, 0,                                !- X,Y,Z Vertex 2 {m}
  100, 0, 0,                              !- X,Y,Z Vertex 3 {m}
  100, 0, 4;                              !- X,Y,Z Vertex 4 {m}

OS:Surface,
  {61d76dfd-d661-4657-b680-014181073fcf}, !- Handle
  Surface 21,                             !- Name
  Wall,                                   !- Surface Type
  ,                                       !- Construction Name
  {d241ccbb-5c5e-4426-8baf-b7985a31c23b}, !- Space Name
  Surface,                                !- Outside Boundary Condition
  {06075065-d7c7-484d-ab92-1310402eda92}, !- Outside Boundary Condition Object
  NoSun,                                  !- Sun Exposure
  NoWind,                                 !- Wind Exposure
  ,                                       !- View Factor to Ground
  ,                                       !- Number of Vertices
  3, 3, 4,                                !- X,Y,Z Vertex 1 {m}
  3, 3, 0,                                !- X,Y,Z Vertex 2 {m}
  0, 0, 0,                                !- X,Y,Z Vertex 3 {m}
  0, 0, 4;                                !- X,Y,Z Vertex 4 {m}

OS:Surface,
  {33650da4-e0ef-4067-93d6-3c06a3e3fdf2}, !- Handle
  Surface 22,                             !- Name
  Wall,                                   !- Surface Type
  ,                                       !- Construction Name
  {d241ccbb-5c5e-4426-8baf-b7985a31c23b}, !- Space Name
  Surface,                                !- Outside Boundary Condition
  {0a2c66b5-17a4-461b-9499-c54ee48ae6a3}, !- Outside Boundary Condition Object
  NoSun,                                  !- Sun Exposure
  NoWind,                                 !- Wind Exposure
  ,                                       !- View Factor to Ground
  ,                                       !- Number of Vertices
  97, 3, 4,                               !- X,Y,Z Vertex 1 {m}
  97, 3, 0,                               !- X,Y,Z Vertex 2 {m}
  3, 3, 0,                                !- X,Y,Z Vertex 3 {m}
  3, 3, 4;                                !- X,Y,Z Vertex 4 {m}

OS:Surface,
  {40da2245-18a7-4c40-9502-dfd0e33208ba}, !- Handle
  Surface 23,                             !- Name
  Wall,                                   !- Surface Type
  ,                                       !- Construction Name
  {d241ccbb-5c5e-4426-8baf-b7985a31c23b}, !- Space Name
  Surface,                                !- Outside Boundary Condition
  {0711d936-ec4d-4043-a575-8947ef852afe}, !- Outside Boundary Condition Object
  NoSun,                                  !- Sun Exposure
  NoWind,                                 !- Wind Exposure
  ,                                       !- View Factor to Ground
  ,                                       !- Number of Vertices
  100, 0, 4,                              !- X,Y,Z Vertex 1 {m}
  100, 0, 0,                              !- X,Y,Z Vertex 2 {m}
  97, 3, 0,                               !- X,Y,Z Vertex 3 {m}
  97, 3, 4;                               !- X,Y,Z Vertex 4 {m}

OS:Surface,
  {1cbdccea-2f87-4c08-8270-5069eddb1df4}, !- Handle
  Surface 24,                             !- Name
  RoofCeiling,                            !- Surface Type
  ,                                       !- Construction Name
  {d241ccbb-5c5e-4426-8baf-b7985a31c23b}, !- Space Name
  Outdoors,                               !- Outside Boundary Condition
  ,                                       !- Outside Boundary Condition Object
  SunExposed,                             !- Sun Exposure
  WindExposed,                            !- Wind Exposure
  ,                                       !- View Factor to Ground
  ,                                       !- Number of Vertices
  97, 3, 4,                               !- X,Y,Z Vertex 1 {m}
  3, 3, 4,                                !- X,Y,Z Vertex 2 {m}
  0, 0, 4,                                !- X,Y,Z Vertex 3 {m}
  100, 0, 4;                              !- X,Y,Z Vertex 4 {m}

OS:Space,
  {c6e01439-7851-4f2e-aebb-b1f5f6a5cd8e}, !- Handle