
OS:Version,
  {50900e78-39ed-4e62-a96a-8fa7fa4f9952}, !- Handle
  3.3.0;                                  !- Version Identifier

OS:BuildingStory,
  {6791d7f0-cfd4-40c4-8f16-34858723e4a0}, !- Handle
  Story 1,                                !- Name
  0,                                      !- Nominal Z Coordinate {m}
  3,                                      !- Nominal Floor to Floor Height {m}
  ,                                       !- Default Construction Set Name
  ,                                       !- Default Schedule Set Name
  ;                                       !- Group Rendering Name

OS:Space,
  {e6014137-1d0d-4a60-a0c9-5fd24704d45c}, !- Handle
  Story 1 Core Space,                     !- Name
  ,                                       !- Space Type Name
  ,                                       !- Default Construction Set Name
  ,                                       !- Default Schedule Set Name
  -0,                                     !- Direction of Relative North {deg}
  0,                                      !- X Origin {m}
  0,                                      !- Y Origin {m}
  0,                                      !- Z Origin {m}
  {6791d7f0-cfd4-40c4-8f16-34858723e4a0}, !- Building Story Name
  {06715d25-934d-4f92-be48-43264e611b9f}; !- Thermal Zone Name

OS:Surface,
  {4a41b9c0-e177-4001-8539-efecf9ea9140}, !- Handle
  Story 1 Core Space Exterior Ground Floor, !- Name
  Floor,                                  !- Surface Type
  ,                                       !- Construction Name
  {e6014137-1d0d-4a60-a0c9-5fd24704d45c}, !- Space Name
  Ground,                                 !- Outside Boundary Condition
  ,                                       !- Outside Boundary Condition Object
  NoSun,                                  !- Sun Exposure
  NoWind,                                 !- Wind Exposure
  ,                                       !- View Factor to Ground
  ,                                       !- Number of Vertices
  0, 0, 0,                                !- X,Y,Z Vertex 1 {m}
  0, 50, 0,                               !- X,Y,Z Vertex 2 {m}
  100, 50, 0,                             !- X,Y,Z Vertex 3 {m}
  100, 0, 0;                              !- X,Y,Z Vertex 4 {m}

OS:Surface,
  {586b5b95-2ef0-4c00-aa12-6e9521856d51}, !- Handle
  Story 1 Core Space Exterior Wall 3,     !- Name
  Wall,                                   !- Surface Type
  ,                                       !- Construction Name
  {e6014137-1d0d-4a60-a0c9-5fd24704d45c}, !- Space Name
  Outdoors,                               !- Outside Boundary Condition
  ,                                       !- Outside Boundary Condition Object
  SunExposed,                             !- Sun Exposure
  WindExposed,                            !- Wind Exposure
  ,                                       !- View Factor to Ground
  ,                                       !- Number of Vertices
  0, 50, 3,                               !- X,Y,Z Vertex 1 {m}
  0, 50, 0,                               !- X,Y,Z Vertex 2 {m}
  0, 0, 0,                                !- X,Y,Z Vertex 3 {m}
  0, 0, 3;                                !- X,Y,Z Vertex 4 {m}

OS:Surface,
  {e5750c41-20ec-432b-84fd-ed8fe26e68a2}, !- Handle
  Story 1 Core Space Exterior Wall 2,     !- Name
  Wall,                                   !- Surface Type
  ,                                       !- Construction Name
  {e6014137-1d0d-4a60-a0c9-5fd24704d45c}, !- Space Name
  Outdoors,                               !- Outside Boundary Condition
  ,                                       !- Outside Boundary Condition Object
  SunExposed,                             !- Sun Exposure
  WindExposed,                            !- Wind Exposure
  ,                                       !- View Factor to Ground
  ,                                       !- Number of Vertices
  100, 50, 3,                             !- X,Y,Z Vertex 1 {m}
  100, 50, 0,                             !- X,Y,Z Vertex 2 {m}
  0, 50, 0,                               !- X,Y,Z Vertex 3 {m}
  0, 50, 3;                               !- X,Y,Z Vertex 4 {m}

OS:Surface,
  {7cd87567-4d9c-466e-92aa-796454a51f75}, !- Handle
  Story 1 Core Space Exterior Wall,       !- Name
  Wall,                                   !- Surface Type
  ,                                       !- Construction Name
  {e6014137-1d0d-4a60-a0c9-5fd24704d45c}, !- Space Name
  Outdoors,                               !- Outside Boundary Condition
  ,                                       !- Outside Boundary Condition Object
  SunExposed,                             !- Sun Exposure
  WindExposed,                            !- Wind Exposure
  ,                                       !- View Factor to Ground
  ,                                       !- Number of Vertices
  100, 0, 3,                              !- X,Y,Z Vertex 1 {m}
  100, 0, 0,                              !- X,Y,Z Vertex 2 {m}
  100, 50, 0,                             !- X,Y,Z Vertex 3 {m}
  100, 50, 3;                             !- X,Y,Z Vertex 4 {m}

OS:Surface,
  {90c4b55d-6897-4f37-99fc-7da5fadb63a1}, !- Handle
  Story 1 Core Space Exterior Wall 1,     !- Name
  Wall,                                   !- Surface Type
  ,                                       !- Construction Name
  {e6014137-1d0d-4a60-a0c9-5fd24704d45c}, !- Space Name
  Outdoors,                               !- Outside Boundary Condition
  ,                                       !- Outside Boundary Condition Object
  SunExposed,                             !- Sun Exposure
  WindExposed,                            !- Wind Exposure
  ,                                       !- View Factor to Ground
  ,                                       !- Number of Vertices
  0, 0, 3,                                !- X,Y,Z Vertex 1 {m}
  0, 0, 0,                                !- X,Y,Z Vertex 2 {m}
  100, 0, 0,                              !- X,Y,Z Vertex 3 {m}
  100, 0, 3;                              !- X,Y,Z Vertex 4 {m}

OS:Surface,
  {1ed037c9-ec89-4bdb-901f-bb14518cbf00}, !- Handle
  Story 1 Core Space Exterior Roof,       !- Name
  RoofCeiling,                            !- Surface Type
  ,                                       !- Construction Name
  {e6014137-1d0d-4a60-a0c9-5fd24704d45c}, !- Space Name
  Outdoors,                               !- Outside Boundary Condition
  ,                                       !- Outside Boundary Condition Object
  SunExposed,                             !- Sun Exposure
  WindExposed,                            !- Wind Exposure
  ,                                       !- View Factor to Ground
  ,                                       !- Number of Vertices
  100, 0, 3,                              !- X,Y,Z Vertex 1 {m}
  100, 50, 3,                             !- X,Y,Z Vertex 2 {m}
  0, 50, 3,                               !- X,Y,Z Vertex 3 {m}
  0, 0, 3;                                !- X,Y,Z Vertex 4 {m}

OS:ThermalZone,
  {06715d25-934d-4f92-be48-43264e611b9f}, !- Handle
  Story 1 Core Thermal Zone,              !- Name
  ,                                       !- Multiplier
  ,                                       !- Ceiling Height {m}
  ,                                       !- Volume {m3}
  ,                                       !- Floor Area {m2}
  ,                                       !- Zone Inside Convection Algorithm
  ,                                       !- Zone Outside Convection Algorithm
  ,                                       !- Zone Conditioning Equipment List Name
  {6dbf1e30-db33-455b-a261-db30fd48074b}, !- Zone Air Inlet Port List
  {551934ba-0a2e-45b0-a4c1-d505a8f63777}, !- Zone Air Exhaust Port List
  {0f52fbc1-207d-48ac-876f-499168999cf7}, !- Zone Air Node Name
  {a0ef2007-8042-45e6-accf-ac084a499ffe}, !- Zone Return Air Port List
  ,                                       !- Primary Daylighting Control Name
  ,                                       !- Fraction of Zone Controlled by Primary Daylighting Control
  ,                                       !- Secondary Daylighting Control Name
  ,                                       !- Fraction of Zone Controlled by Secondary Daylighting Control
  ,                                       !- Illuminance Map Name
  ,                                       !- Group Rendering Name
  {94389fcb-e9a7-4031-9aa7-6941f7929bcf}, !- Thermostat Name
  No;                                     !- Use Ideal Air Loads

OS:Node,
  {a43a6f6f-22d2-4d69-a857-86c24ce0376d}, !- Handle
  Zone Air Node,                          !- Name
  {0f52fbc1-207d-48ac-876f-499168999cf7}, !- Inlet Port
  ;                                       !- Outlet Port

OS:Connection,
  {0f52fbc1-207d-48ac-876f-499168999cf7}, !- Handle
  {06715d25-934d-4f92-be48-43264e611b9f}, !- Source Object
  11,                                     !- Outlet Port
  {a43a6f6f-22d2-4d69-a857-86c24ce0376d}, !- Target Object
  2;                                      !- Inlet Port

OS:PortList,
  {6dbf1e30-db33-455b-a261-db30fd48074b}, !- Handle
  {06715d25-934d-4f92-be48-43264e611b9f}, !- HVAC Component
  {2c02ee35-7061-4de3-b8ca-fe203e9394d6}; !- Port 1

OS:PortList,
  {551934ba-0a2e-45b0-a4c1-d505a8f63777}, !- Handle
  {06715d25-934d-4f92-be48-43264e611b9f}, !- HVAC Component
  {0c07e981-d8ca-413a-be8e-d38eb74445fd}; !- Port 1

OS:PortList,
  {a0ef2007-8042-45e6-accf-ac084a499ffe}, !- Handle
  {06715d25-934d-4f92-be48-43264e611b9f}, !- HVAC Component
  {accc83ef-30fd-425e-8bd8-820484ef7104}; !- Port 1

OS:Sizing:Zone,
  {88bcb850-f83c-4bee-82f3-5b6d3e6f10e4}, !- Handle
  {06715d25-934d-4f92-be48-43264e611b9f}, !- Zone or ZoneList Name
  SupplyAirTemperature,                   !- Zone Cooling Design Supply Air Temperature Input Method
  14,                                     !- Zone Cooling Design Supply Air Temperature {C}
  11.11,                                  !- Zone Cooling Design Supply Air Temperature Difference {deltaC}
  SupplyAirTemperature,                   !- Zone Heating Design Supply Air Temperature Input Method
  40,                                     !- Zone Heating Design Supply Air Temperature {C}
  11.11,                                  !- Zone Heating Design Supply Air Temperature Difference {deltaC}
  0.0085,                                 !- Zone Cooling Design Supply Air Humidity Ratio {kg-H2O/kg-air}
  0.008,                                  !- Zone Heating Design Supply Air Humidity Ratio {kg-H2O/kg-air}
  ,                                       !- Zone Heating Sizing Factor
  ,                                       !- Zone Cooling Sizing Factor
  DesignDay,                              !- Cooling Design Air Flow Method
  ,                                       !- Cooling Design Air Flow Rate {m3/s}
  ,                                       !- Cooling Minimum Air Flow per Zone Floor Area {m3/s-m2}
  ,                                       !- Cooling Minimum Air Flow {m3/s}
  ,                                       !- Cooling Minimum Air Flow Fraction
  DesignDay,                              !- Heating Design Air Flow Method
  ,                                       !- Heating Design Air Flow Rate {m3/s}
  ,                                       !- Heating Maximum Air Flow per Zone Floor Area {m3/s-m2}
  ,                                       !- Heating Maximum Air Flow {m3/s}
  ,                                       !- Heating Maximum Air Flow Fraction
  No,                                     !- Account for Dedicated Outdoor Air System
  NeutralSupplyAir,                       !- Dedicated Outdoor Air System Control Strategy
  autosize,                               !- Dedicated Outdoor Air Low Setpoint Temperature for Design {C}
  autosize;                               !- Dedicated Outdoor Air High Setpoint Temperature for Design {C}

OS:ZoneHVAC:EquipmentList,
  {983fdae6-bf77-4271-a9fb-ef99a8db97c5}, !- Handle
  Zone HVAC Equipment List 1,             !- Name
  {06715d25-934d-4f92-be48-43264e611b9f}, !- Thermal Zone
  ,                                       !- Load Distribution Scheme
  {1fd972a0-cec1-4b06-a6ef-073b4554925c}, !- Zone Equipment 1
  2,                                      !- Zone Equipment Cooling Sequence 1
  2,                                      !- Zone Equipment Heating or No-Load Sequence 1
  ,                                       !- Zone Equipment Sequential Cooling Fraction Schedule Name 1
  ,                                       !- Zone Equipment Sequential Heating Fraction Schedule Name 1
  {a5a29816-aaab-4a61-9732-4df29cc3f7ef}, !- Zone Equipment 2
  1,                                      !- Zone Equipment Cooling Sequence 2
  1,                                      !- Zone Equipment Heating or No-Load Sequence 2
  ,                                       !- Zone Equipment Sequential Cooling Fraction Schedule Name 2
  ;                                       !- Zone Equipment Sequential Heating Fraction Schedule Name 2

OS:SubSurface,
  {80551c87-80e0-4fea-88d3-d05406bab1cb}, !- Handle
  Story 1 Core Space Exterior Wall 1 Window, !- Name
  FixedWindow,                            !- Sub Surface Type
  ,                                       !- Construction Name
  {90c4b55d-6897-4f37-99fc-7da5fadb63a1}, !- Surface Name
  ,                                       !- Outside Boundary Condition Object
  ,                                       !- View Factor to Ground
  ,                                       !- Frame and Divider Name
  ,                                       !- Multiplier
  ,                                       !- Number of Vertices
  0.0254, 0, 2.2006099098342,             !- X,Y,Z Vertex 1 {m}
  0.0254, 0, 1,                           !- X,Y,Z Vertex 2 {m}
  99.9746, 0, 1,                          !- X,Y,Z Vertex 3 {m}
  99.9746, 0, 2.2006099098342;            !- X,Y,Z Vertex 4 {m}

OS:SubSurface,
  {c611c307-c540-4379-b7f0-e5e93e7b0afe}, !- Handle
  Story 1 Core Space Exterior Wall Window, !- Name
  FixedWindow,                            !- Sub Surface Type
  ,                                       !- Construction Name
  {7cd87567-4d9c-466e-92aa-796454a51f75}, !- Surface Name
  ,                                       !- Outside Boundary Condition Object
  ,                                       !- View Factor to Ground
  ,                                       !- Frame and Divider Name
  ,                                       !- Multiplier
  ,                                       !- Number of Vertices
  100, 0.0254, 2.20122043996701,          !- X,Y,Z Vertex 1 {m}
  100, 0.0254, 1,                         !- X,Y,Z Vertex 2 {m}
  100, 49.9746, 1,                        !- X,Y,Z Vertex 3 {m}
  100, 49.9746, 2.20122043996701;         !- X,Y,Z Vertex 4 {m}

OS:SubSurface,
  {f1bffc30-2bf6-4245-8084-cfa9383d3465}, !- Handle
  Story 1 Core Space Exterior Wall 2 Window, !- Name
  FixedWindow,                            !- Sub Surface Type
  ,                                       !- Construction Name
  {e5750c41-20ec-432b-84fd-ed8fe26e68a2}, !- Surface Name
  ,                                       !- Outside Boundary Condition Object
  ,                                       !- View Factor to Ground
  ,                                       !- Frame and Divider Name
  ,                                       !- Multiplier
  ,                                       !- Number of Vertices
  99.9746, 50, 2.2006099098342,           !- X,Y,Z Vertex 1 {m}
  99.9746, 50, 1,                         !- X,Y,Z Vertex 2 {m}
  0.0253999999999905, 50, 1,              !- X,Y,Z Vertex 3 {m}
  0.0253999999999905, 50, 2.2006099098342; !- X,Y,Z Vertex 4 {m}

OS:SubSurface,
  {50175c83-e21a-493b-9dca-10aeac55c073}, !- Handle
  Story 1 Core Space Exterior Wall 3 Window, !- Name
  FixedWindow,                            !- Sub Surface Type
  ,                                       !- Construction Name
  {586b5b95-2ef0-4c00-aa12-6e9521856d51}, !- Surface Name
  ,                                       !- Outside Boundary Condition Object
  ,                                       !- View Factor to Ground
  ,                                       !- Frame and Divider Name
  ,                                       !- Multiplier
  ,                                       !- Number of Vertices
  0, 49.9746, 2.20122043996701,           !- X,Y,Z Vertex 1 {m}
  0, 49.9746, 1,                          !- X,Y,Z Vertex 2 {m}
  0, 0.0254000000000048, 1,               !- X,Y,Z Vertex 3 {m}
  0, 0.0254000000000048, 2.20122043996701; !- X,Y,Z Vertex 4 {m}

OS:Schedule:Constant,
  {daea6646-5f04-40b2-bb01-d0e63107a5d4}, !- Handle
  Always On Discrete,                     !- Name
  {5b9e9c68-6d8f-4123-bef8-938605afeafd}, !- Schedule Type Limits Name
  1;                                      !- Value

OS:ScheduleTypeLimits,
  {5b9e9c68-6d8f-4123-bef8-938605afeafd}, !- Handle
  OnOff,                                  !- Name
  0,                                      !- Lower Limit Value
  1,                                      !- Upper Limit Value
  Discrete,                               !- Numeric Type
  Availability;                           !- Unit Type

OS:Schedule:Ruleset,
  {1e3c8d9a-0566-440a-9fcf-796ea86ab571}, !- Handle
  Deck_Temperature,                       !- Name
  {bc4e35dd-c84e-4894-adbf-f1db653bdd0f}, !- Schedule Type Limits Name
  {a9dfba2e-1588-447c-aac6-be1336e7a05b}, !- Default Day Schedule Name
  {3900950e-9679-46c5-be6e-78a4e054c195}, !- Summer Design Day Schedule Name
  {84e5bdd9-a519-40dd-9bf6-2c36ec584f8d}; !- Winter Design Day Schedule Name

OS:Schedule:Day,
  {a9dfba2e-1588-447c-aac6-be1336e7a05b}, !- Handle
  Deck_Temperature_Default,               !- Name
  {bc4e35dd-c84e-4894-adbf-f1db653bdd0f}, !- Schedule Type Limits Name
  ,                                       !- Interpolate to Timestep
  24,                                     !- Hour 1
  0,                                      !- Minute 1
  12.8;                                   !- Value Until Time 1

OS:Schedule:Day,
  {3900950e-9679-46c5-be6e-78a4e054c195}, !- Handle
  Deck_Temperature_Summer_Design_Day,     !- Name
  {bc4e35dd-c84e-4894-adbf-f1db653bdd0f}, !- Schedule Type Limits Name
  ,                                       !- Interpolate to Timestep
  24,                                     !- Hour 1
  0,                                      !- Minute 1
  12.8;                                   !- Value Until Time 1

OS:Schedule:Day,
  {84e5bdd9-a519-40dd-9bf6-2c36ec584f8d}, !- Handle
  Deck_Temperature_Winter_Design_Day,     !- Name
  {bc4e35dd-c84e-4894-adbf-f1db653bdd0f}, !- Schedule Type Limits Name
  ,                                       !- Interpolate to Timestep
  24,                                     !- Hour 1
  0,                                      !- Minute 1
  12.8;                                   !- Value Until Time 1

OS:Schedule:Ruleset,
  {51695acc-cff2-48f5-bb2f-a1d72ee76c9d}, !- Handle
  Hot_Water_Temperature,                  !- Name
  {bc4e35dd-c84e-4894-adbf-f1db653bdd0f}, !- Schedule Type Limits Name
  {962cb40d-7253-4a0d-b35b-7523537d8482}, !- Default Day Schedule Name
  {c0a70260-e202-4450-93e8-d0ca792c6526}, !- Summer Design Day Schedule Name
  {ebdfc71b-6bec-4a24-a793-27dcd0e4face}; !- Winter Design Day Schedule Name

OS:Schedule:Day,
  {962cb40d-7253-4a0d-b35b-7523537d8482}, !- Handle
  Hot_Water_Temperature_Default,          !- Name
  {bc4e35dd-c84e-4894-adbf-f1db653bdd0f}, !- Schedule Type Limits Name
  ,                                       !- Interpolate to Timestep
  24,                                     !- Hour 1
  0,                                      !- Minute 1
  67;                                     !- Value Until Time 1

OS:Schedule:Day,
  {c0a70260-e202-4450-93e8-d0ca792c6526}, !- Handle
  Hot_Water_Temperature_Summer_Design_Day, !- Name
  {bc4e35dd-c84e-4894-adbf-f1db653bdd0f}, !- Schedule Type Limits Name
  ,                                       !- Interpolate to Timestep
  24,                                     !- Hour 1
  0,                                      !- Minute 1
  67;                                     !- Value Until Time 1

OS:Schedule:Day,
  {ebdfc71b-6bec-4a24-a793-27dcd0e4face}, !- Handle
  Hot_Water_Temperature_Winter_Design_Day, !- Name
  {bc4e35dd-c84e-4894-adbf-f1db653bdd0f}, !- Schedule Type Limits Name
  ,                                       !- Interpolate to Timestep
  24,                                     !- Hour 1
  0,                                      !- Minute 1
  67;                                     !- Value Until Time 1

OS:Schedule:Ruleset,
  {3779c96c-3cbb-4db6-8f6b-a9f72d54a53d}, !- Handle
  Chilled_Water_Temperature,              !- Name
  {bc4e35dd-c84e-4894-adbf-f1db653bdd0f}, !- Schedule Type Limits Name
  {661e7842-a0bd-4689-aa04-75dd968d5a69}, !- Default Day Schedule Name
  {26ccc022-5c54-4d78-b43a-6563633838c3}, !- Summer Design Day Schedule Name
  {f19b280f-ce8d-4181-bf77-2bee507e86b0}; !- Winter Design Day Schedule Name

OS:Schedule:Day,
  {661e7842-a0bd-4689-aa04-75dd968d5a69}, !- Handle
  Chilled_Water_Temperature_Default,      !- Name
  {bc4e35dd-c84e-4894-adbf-f1db653bdd0f}, !- Schedule Type Limits Name
  ,                                       !- Interpolate to Timestep
  24,                                     !- Hour 1
  0,                                      !- Minute 1
  6.7;                                    !- Value Until Time 1

OS:Schedule:Day,
  {26ccc022-5c54-4d78-b43a-6563633838c3}, !- Handle
  Chilled_Water_Temperature_Summer_Design_Day, !- Name
  {bc4e35dd-c84e-4894-adbf-f1db653bdd0f}, !- Schedule Type Limits Name
  ,                                       !- Interpolate to Timestep
  24,                                     !- Hour 1
  0,                                      !- Minute 1
  6.7;                                    !- Value Until Time 1

OS:Schedule:Day,
  {f19b280f-ce8d-4181-bf77-2bee507e86b0}, !- Handle
  Chilled_Water_Temperature_Winter_Design_Day, !- Name
  {bc4e35dd-c84e-4894-adbf-f1db653bdd0f}, !- Schedule Type Limits Name
  ,                                       !- Interpolate to Timestep
  24,                                     !- Hour 1
  0,                                      !- Minute 1
  6.7;                                    !- Value Until Time 1

OS:AirLoopHVAC,
  {a5d2050a-c52d-4a3e-9d4d-5f33ac7ed03f}, !- Handle
  VAV with Reheat,                        !- Name
  ,                                       !- Controller List Name
  {daea6646-5f04-40b2-bb01-d0e63107a5d4}, !- Availability Schedule
  {cc5179c5-0a38-4231-b019-317e5e9c9880}, !- Availability Manager List Name
  autosize,                               !- Design Supply Air Flow Rate {m3/s}
  1,                                      !- Design Return Air Flow Fraction of Supply Air Flow
  ,                                       !- Branch List Name
  ,                                       !- Connector List Name
  {a692c70e-aa58-44fa-b376-77c04a69e36d}, !- Supply Side Inlet Node Name
  {340c02a2-bfdc-45af-9678-8036c6a6d4b0}, !- Demand Side Outlet Node Name
  {c1b62c71-8756-4396-99f6-63b79522a471}, !- Demand Side Inlet Node A
  {b67f4b52-af28-472f-b6b5-f56ecd266902}, !- Supply Side Outlet Node A
  ,                                       !- Demand Side Inlet Node B
  ,                                       !- Supply Side Outlet Node B
  ,                                       !- Return Air Bypass Flow Temperature Setpoint Schedule Name
  {d8d0e485-9400-4260-9abf-cc9f3d76a0eb}, !- Demand Mixer Name
  {b61254a5-dfda-40f1-be4f-c8e0d8f1465d}, !- Demand Splitter A Name
  ,                                       !- Demand Splitter B Name
  ;                                       !- Supply Splitter Name

OS:Node,
  {2a5df166-2a56-4eaa-be80-68a1f5ae886e}, !- Handle
  Node 2,                                 !- Name
  {a692c70e-aa58-44fa-b376-77c04a69e36d}, !- Inlet Port
  {055f7994-b57f-4abc-88f1-d0737fdfcd25}; !- Outlet Port

OS:Node,
  {df754ee2-c6db-4579-ba29-0613b2e7bac6}, !- Handle
  Node 3,                                 !- Name
  {8a379e05-d3c7-49b9-b9d2-e2432825b946}, !- Inlet Port
  {b67f4b52-af28-472f-b6b5-f56ecd266902}; !- Outlet Port

OS:Connection,
  {a692c70e-aa58-44fa-b376-77c04a69e36d}, !- Handle
  {a5d2050a-c52d-4a3e-9d4d-5f33ac7ed03f}, !- Source Object
  9,                                      !- Outlet Port
  {2a5df166-2a56-4eaa-be80-68a1f5ae886e}, !- Target Object
  2;                                      !- Inlet Port

OS:Connection,
  {b67f4b52-af28-472f-b6b5-f56ecd266902}, !- Handle
  {df754ee2-c6db-4579-ba29-0613b2e7bac6}, !- Source Object
  3,                                      !- Outlet Port
  {a5d2050a-c52d-4a3e-9d4d-5f33ac7ed03f}, !- Target Object
  12;                                     !- Inlet Port

OS:Node,
  {a5df7413-05a6-4b5a-9dd7-6fb6cb941e70}, !- Handle
  Node 4,                                 !- Name
  {c1b62c71-8756-4396-99f6-63b79522a471}, !- Inlet Port
  {93b42ab1-1713-4cfc-a49d-c5506c8428cd}; !- Outlet Port

OS:Node,
  {a98cd1fe-6414-47d8-8a89-bd420f61c8ff}, !- Handle
  Node 5,                                 !- Name
  {40484e33-4721-4f5d-8748-817659c5d550}, !- Inlet Port
  {340c02a2-bfdc-45af-9678-8036c6a6d4b0}; !- Outlet Port

OS:Connection,
  {c1b62c71-8756-4396-99f6-63b79522a471}, !- Handle
  {a5d2050a-c52d-4a3e-9d4d-5f33ac7ed03f}, !- Source Object
  11,                                     !- Outlet Port
  {a5df7413-05a6-4b5a-9dd7-6fb6cb941e70}, !- Target Object
  2;                                      !- Inlet Port

OS:Connection,
  {340c02a2-bfdc-45af-9678-8036c6a6d4b0}, !- Handle
  {a98cd1fe-6414-47d8-8a89-bd420f61c8ff}, !- Source Object
  3,                                      !- Outlet Port
  {a5d2050a-c52d-4a3e-9d4d-5f33ac7ed03f}, !- Target Object
  10;                                     !- Inlet Port

OS:AirLoopHVAC:ZoneSplitter,
  {b61254a5-dfda-40f1-be4f-c8e0d8f1465d}, !- Handle
  Air Loop HVAC Zone Splitter 1,          !- Name
  {93b42ab1-1713-4cfc-a49d-c5506c8428cd}, !- Inlet Node Name
  {59fbbad9-33a6-4bb8-a673-1e8ed393d14a}; !- Outlet Node Name 1

OS:AirLoopHVAC:ZoneMixer,
  {d8d0e485-9400-4260-9abf-cc9f3d76a0eb}, !- Handle
  Air Loop HVAC Zone Mixer 1,             !- Name
  {40484e33-4721-4f5d-8748-817659c5d550}, !- Outlet Node Name
  {b6663fb7-def9-495b-98f7-130059ded03a}; !- Inlet Node Name 1

OS:Connection,
  {93b42ab1-1713-4cfc-a49d-c5506c8428cd}, !- Handle
  {a5df7413-05a6-4b5a-9dd7-6fb6cb941e70}, !- Source Object
  3,                                      !- Outlet Port
  {b61254a5-dfda-40f1-be4f-c8e0d8f1465d}, !- Target Object
  2;                                      !- Inlet Port

OS:Connection,
  {40484e33-4721-4f5d-8748-817659c5d550}, !- Handle
  {d8d0e485-9400-4260-9abf-cc9f3d76a0eb}, !- Source Object
  2,                                      !- Outlet Port
  {a98cd1fe-6414-47d8-8a89-bd420f61c8ff}, !- Target Object
  2;                                      !- Inlet Port

OS:Sizing:System,
  {8d939aef-cdf0-4512-bc04-6ac926867fff}, !- Handle
  {a5d2050a-c52d-4a3e-9d4d-5f33ac7ed03f}, !- AirLoop Name
  ,                                       !- Type of Load to Size On
  ,                                       !- Design Outdoor Air Flow Rate {m3/s}
  0.3,                                    !- Central Heating Maximum System Air Flow Ratio
  7,                                      !- Preheat Design Temperature {C}
  0.008,                                  !- Preheat Design Humidity Ratio {kg-H2O/kg-Air}
  12.8,                                   !- Precool Design Temperature {C}
  0.008,                                  !- Precool Design Humidity Ratio {kg-H2O/kg-Air}
  12.8,                                   !- Central Cooling Design Supply Air Temperature {C}
  12.8,                                   !- Central Heating Design Supply Air Temperature {C}
  ,                                       !- Sizing Option
  Yes,                                    !- 100% Outdoor Air in Cooling
  Yes,                                    !- 100% Outdoor Air in Heating
  0.0085,                                 !- Central Cooling Design Supply Air Humidity Ratio {kg-H2O/kg-Air}
  ,                                       !- Central Heating Design Supply Air Humidity Ratio {kg-H2O/kg-Air}
  ,                                       !- Cooling Design Air Flow Method
  ,                                       !- Cooling Design Air Flow Rate {m3/s}
  ,                                       !- Heating Design Air Flow Method
  ,                                       !- Heating Design Air Flow Rate {m3/s}
  ,                                       !- System Outdoor Air Method
  1,                                      !- Zone Maximum Outdoor Air Fraction {dimensionless}
  0.0099676501,                           !- Cooling Supply Air Flow Rate Per Floor Area {m3/s-m2}
  1,                                      !- Cooling Fraction of Autosized Cooling Supply Air Flow Rate
  3.9475456e-05,                          !- Cooling Supply Air Flow Rate Per Unit Cooling Capacity {m3/s-W}
  0.0099676501,                           !- Heating Supply Air Flow Rate Per Floor Area {m3/s-m2}
  1,                                      !- Heating Fraction of Autosized Heating Supply Air Flow Rate
  1,                                      !- Heating Fraction of Autosized Cooling Supply Air Flow Rate
  3.1588213e-05,                          !- Heating Supply Air Flow Rate Per Unit Heating Capacity {m3/s-W}
  CoolingDesignCapacity,                  !- Cooling Design Capacity Method
  autosize,                               !- Cooling Design Capacity {W}
  234.7,                                  !- Cooling Design Capacity Per Floor Area {W/m2}
  1,                                      !- Fraction of Autosized Cooling Design Capacity
  HeatingDesignCapacity,                  !- Heating Design Capacity Method
  autosize,                               !- Heating Design Capacity {W}