
OS:Version,
  {e83e4890-c932-4311-a298-3d231bae02ea}, !- Handle
  1.2.1;                                  !- Version Identifier

OS:ScheduleTypeLimits,
  {ef3ff112-cce9-43f6-8f92-3ac4433bc94d}, !- Handle
  Lights Schedule Type Limits,            !- Name
  0,                                      !- Lower Limit Value {BasedOnField A4}
  1,                                      !- Upper Limit Value {BasedOnField A4}
  Continuous,                             !- Numeric Type
  Dimensionless;                          !- Unit Type

OS:ScheduleTypeLimits,
  {6ce1fcb6-b29a-44da-8147-d5d14e75ed8d}, !- Handle
  Occupancy Schedule Type Limits,         !- Name
  0,                                      !- Lower Limit Value {BasedOnField A4}
  1,                                      !- Upper Limit Value {BasedOnField A4}
  Continuous,                             !- Numeric Type
  Dimensionless;                          !- Unit Type

OS:ScheduleTypeLimits,
  {d3707874-bef4-4c9b-adc3-4ecc722ee0fc}, !- Handle
  Equipment Schedule Type Limits,         !- Name
  0,                                      !- Lower Limit Value {BasedOnField A4}
  1,                                      !- Upper Limit Value {BasedOnField A4}
  Continuous,                             !- Numeric Type
  Dimensionless;                          !- Unit Type

OS:ScheduleTypeLimits,
  {d9e9d7a5-1861-4891-864c-73eee4b7da09}, !- Handle
  Water Use Schedule Type Limits,         !- Name
  0,                                      !- Lower Limit Value {BasedOnField A4}
  1,                                      !- Upper Limit Value {BasedOnField A4}
  Continuous,                             !- Numeric Type
  Dimensionless;                          !- Unit Type

OS:ScheduleTypeLimits,
  {c56f543d-7df6-4465-b036-df2a9fbb5ee1}, !- Handle
  Elevators Schedule Type Limits,         !- Name
  0,                                      !- Lower Limit Value {BasedOnField A4}
  1,                                      !- Upper Limit Value {BasedOnField A4}
  Continuous,                             !- Numeric Type
  Dimensionless;                          !- Unit Type

OS:ScheduleTypeLimits,
  {7b85f46a-e6cd-4827-897b-a02f5847eefe}, !- Handle
  Thermostat Heating Setpoint Schedule Type Limits, !- Name
  0,                                      !- Lower Limit Value {BasedOnField A4}
  100,                                    !- Upper Limit Value {BasedOnField A4}
  Continuous,                             !- Numeric Type
  Temperature;                            !- Unit Type

OS:ScheduleTypeLimits,
  {f9a5bd77-c2de-44a6-b01f-bf7805527733}, !- Handle
  Thermostat Cooling Setpoint Schedule Type Limits, !- Name
  0,                                      !- Lower Limit Value {BasedOnField A4}
  100,                                    !- Upper Limit Value {BasedOnField A4}
  Continuous,                             !- Numeric Type
  Temperature;                            !- Unit Type

OS:ScheduleTypeLimits,
  {84cca58a-9890-4e00-82dd-566483f04355}, !- Handle
  HVAC Operation Schedule Type Limits,    !- Name
  0,                                      !- Lower Limit Value {BasedOnField A4}
  1,                                      !- Upper Limit Value {BasedOnField A4}
  Discrete,                               !- Numeric Type
  Availability;                           !- Unit Type

OS:Material:AirWall,
  {7898c600-fe51-481f-86a6-f1556e714dd0}, !- Handle
  {37254bb0-0fe7-4fb1-af8e-fc9850299325}; !- Name

OS:Construction,
  {1d543f6a-9070-46de-ba36-5400acb75f25}, !- Handle
  {2028d8c1-88d2-405f-8019-de4e79cf5612}, !- Name
  {556a7278-f9b6-4d7c-9a62-c6acd9c0e90e}, !- Surface Rendering Name
  {7898c600-fe51-481f-86a6-f1556e714dd0}; !- Layer 1

OS:Construction,
  {fb1c82bd-6fc7-4d03-bc20-266817b96901}, !- Handle
  Slab on grade 1,                        !- Name
  {be42dfd8-af8f-4038-a4c7-d9b16d7723d4}, !- Surface Rendering Name
  {ec046bf3-2668-4b02-999d-56838f703527}; !- Layer 1

OS:Material,
  {ec046bf3-2668-4b02-999d-56838f703527}, !- Handle
  Heavyweight Concrete - 8 in. - 140 lb/ft3 1, ! Name
  MediumRough,                            ! Roughness
  0.2032,                                 ! Thickness {m}
  1.95,                                   ! Conductivity {W/m-K}
  2242.58487235442,                       ! Density {kg/m3}
  900;                                    ! Specific Heat {J/kg-K}

OS:ComponentData,
  {3986ce2a-d192-46db-b7f7-17e746ef3a6b}, !- Handle
  OS:ComponentData 1,                     !- Name
  {3fcc465d-ebbc-45e6-8a58-3ecfc08f6990}, !- UUID
  {54c81117-769d-40f8-add8-f63aaa75e2b1}, !- Version UUID
  ,                                       !- Creation Timestamp
  ,                                       !- Version Timestamp
  {ec046bf3-2668-4b02-999d-56838f703527}; !- Name of Object 1

OS:Construction,
  {ca395591-a093-4a94-bfb4-f62ebe53f2d2}, !- Handle
  Int wall,                               !- Name
  {d7437db8-5bd1-4aa1-abeb-def494084a6f}, !- Surface Rendering Name
  {5d6c836a-f5e0-4ffd-912a-47856ad171aa}, !- Layer 1
  {67f5aa4d-800b-449f-bbea-2fd3ad8883e5}, !- Layer 2
  {67f5aa4d-800b-449f-bbea-2fd3ad8883e5}; !- Layer 3

OS:ComponentData,
  {038668a7-2971-4bea-aa2a-6506c2accb46}, !- Handle
  {7dcc09f3-41df-4d44-a5ac-bd28ca328de1}, !- Name
  {fa56a732-cc1e-47ee-a8db-5765f254cd6d}, !- UUID
  {23e330d5-17cd-4490-99b8-13ba8764dfce}, !- Version UUID
  ,                                       !- Creation Timestamp
  ,                                       !- Version Timestamp
  {5d6c836a-f5e0-4ffd-912a-47856ad171aa}; !- Name of Object 1

OS:Material,
  {5d6c836a-f5e0-4ffd-912a-47856ad171aa}, !- Handle
  Steel-Framed - 4 in. Studs - 16 in. OC - R-0 Cavity Insulation, ! Name
  Smooth,                                 ! Roughness
  0.0889,                                 ! Thickness {m}
  0.638249853020101,                      ! Conductivity {W/m-K}
  81.3737939397175,                       ! Density {kg/m3}
  628.02;                                 ! Specific Heat {J/kg-K}

OS:ComponentData,
  {dcf5bb58-d7ab-456d-aed0-0e04fc44334a}, !- Handle
  {5b790784-2969-47e2-a9f7-ee9f8fd44888}, !- Name
  {7efab985-e11a-465b-8fde-9974a0d93c38}, !- UUID
  {3ae27d43-aad6-4e29-b333-7742e3a3b251}, !- Version UUID
  ,                                       !- Creation Timestamp
  ,                                       !- Version Timestamp
  {67f5aa4d-800b-449f-bbea-2fd3ad8883e5}; !- Name of Object 1

OS:Material,
  {67f5aa4d-800b-449f-bbea-2fd3ad8883e5}, !- Handle
  Gypsum Board - 1/2 in.,                 ! Name
  MediumSmooth,                           ! Roughness
  0.0127,                                 ! Thickness {m}
  0.16,                                   ! Conductivity {W/m-K}
  800,                                    ! Density {kg/m3}
  1090;                                   ! Specific Heat {J/kg-K}

OS:Construction,
  {80cff50e-67c1-4b4d-bcf4-fc55d71642ab}, !- Handle
  Int floor,                              !- Name
  {f6f5a92d-ab85-4eb1-b983-7dfb3230fef0}, !- Surface Rendering Name
  {a95bfd0f-d24c-4404-b980-7d4d55e6da1a}; !- Layer 1

OS:ComponentData,
  {2b919451-6367-429a-89be-576f56016b32}, !- Handle
  {151a8b95-7ec1-49be-a2b2-261cb4249d05}, !- Name
  {f135dc61-c030-48c2-bcfd-bf2f1e84db95}, !- UUID
  {27d4cac7-02d9-440d-bc68-55fc405ad9f8}, !- Version UUID
  ,                                       !- Creation Timestamp
  ,                                       !- Version Timestamp
  {a95bfd0f-d24c-4404-b980-7d4d55e6da1a}; !- Name of Object 1

OS:Material,
  {a95bfd0f-d24c-4404-b980-7d4d55e6da1a}, !- Handle
  Carpet - 1/2 in.,                       ! Name
  MediumRough,                            ! Roughness
  0.0127,                                 ! Thickness {m}
  0.06,                                   ! Conductivity {W/m-K}
  288,                                    ! Density {kg/m3}
  1380;                                   ! Specific Heat {J/kg-K}

OS:Construction,
  {d3929a8d-9fdc-4567-ba8a-aa41e5621a24}, !- Handle
  Ceiling,                                !- Name
  {1ca06f03-b36e-4eb0-9600-180f71feb569}, !- Surface Rendering Name
  {bcb44349-674f-4fb8-84a6-297910ef4b91}; !- Layer 1

OS:ComponentData,
  {649f2b1e-11f9-42fd-8325-12542094cd40}, !- Handle
  {9fa322ed-a6ee-4609-bb28-33c60809be2f}, !- Name
  {49a0db89-edfb-4c8a-a6ea-de5081b2f98a}, !- UUID
  {8b8840a7-7763-410a-8497-b0262e9a5f16}, !- Version UUID
  ,                                       !- Creation Timestamp
  ,                                       !- Version Timestamp
  {bcb44349-674f-4fb8-84a6-297910ef4b91}; !- Name of Object 1

OS:Material,
  {bcb44349-674f-4fb8-84a6-297910ef4b91}, !- Handle
  Vegetable Fiber Board  Sound Deadening Board - 1/2 in., ! Name
  Smooth,                                 ! Roughness
  0.0127,                                 ! Thickness {m}
  0.063,                                  ! Conductivity {W/m-K}
  240,                                    ! Density {kg/m3}
  1260;                                   ! Specific Heat {J/kg-K}

OS:Construction,
  {cd7dbfd7-c3f6-441a-b7d6-8437ec3a4f84}, !- Handle
  Ext wall 1,                             !- Name
  {d3f37b67-4392-48aa-8215-a97f81144ef7}, !- Surface Rendering Name
  {b268a710-8cd2-47b7-9826-070e2137abaa}, !- Layer 1
  {67f5aa4d-800b-449f-bbea-2fd3ad8883e5}; !- Layer 2

OS:ComponentData,
  {8f638bcd-29bd-4729-b420-778feb57b2d6}, !- Handle
  {5cab192b-18d1-4201-bdb1-a4bd998dd0d5}, !- Name
  {2db833ba-51f2-492d-956f-b3540d96935b}, !- UUID
  {e435d452-8785-4e7b-b0d7-89c43ee3a686}, !- Version UUID
  ,                                       !- Creation Timestamp
  ,                                       !- Version Timestamp
  {b268a710-8cd2-47b7-9826-070e2137abaa}; !- Name of Object 1

OS:Material,
  {b268a710-8cd2-47b7-9826-070e2137abaa}, !- Handle
  Opaque Spandrel Glass - 1/4 in. 1,      ! Name
  Smooth,                                 ! Roughness
  0.00635,                                ! Thickness {m}
  0.99,                                   ! Conductivity {W/m-K}
  2528,                                   ! Density {kg/m3}
  880;                                    ! Specific Heat {J/kg-K}

OS:Construction,
  {55bca7bf-a288-49ad-bc43-39ee695e52bf}, !- Handle
  Ext roof,                               !- Name
  {aad270b5-d254-419f-bc07-e11793ab3de9}, !- Surface Rendering Name
  {c4b8c3c8-0670-4ec4-9fa3-34ef560b95ea}, !- Layer 1
  {139fc39f-4a87-4eb1-bbcb-f01dd3168553}, !- Layer 2
  {5df2ef60-8d4d-482d-8cc2-94de45b7d8c7}, !- Layer 3
  {7e74e505-9fa4-4346-beab-f52806865d2a}; !- Layer 4

OS:Material,
  {c4b8c3c8-0670-4ec4-9fa3-34ef560b95ea}, !- Handle
  Metal Surface - 1/16 in.,               ! Name
  Smooth,                                 ! Roughness
  0.0015875,                              ! Thickness {m}
  45.28,                                  ! Conductivity {W/m-K}
  7824,                                   ! Density {kg/m3}
  500;                                    ! Specific Heat {J/kg-K}

OS:ComponentData,
  {1993c426-8eef-4cd5-955a-ba9cd766b418}, !- Handle
  {37a5f49e-e4f6-45e0-9ea2-26d2ec9ee96e}, !- Name
  {98f3fa9b-9604-451b-b12b-bd48ab0aab34}, !- UUID
  {30f50ffe-77b5-4570-9505-8fdd58b28aae}, !- Version UUID
  ,                                       !- Creation Timestamp
  ,                                       !- Version Timestamp
  {c4b8c3c8-0670-4ec4-9fa3-34ef560b95ea}; !- Name of Object 1

OS:Material,
  {139fc39f-4a87-4eb1-bbcb-f01dd3168553}, !- Handle
  Built-up Roofing - 3/8 in.,             ! Name
  Rough,                                  ! Roughness
  0.009525,                               ! Thickness {m}
  0.16,                                   ! Conductivity {W/m-K}
  1120,                                   ! Density {kg/m3}
  1460;                                   ! Specific Heat {J/kg-K}

OS:ComponentData,
  {b2142d90-8db0-4aed-b4d8-b9b50b61904a}, !- Handle
  {65904264-bfd0-4fa4-bad6-75c0bc4dd389}, !- Name
  {ea7cff06-8eeb-4909-970f-4a5510dec322}, !- UUID
  {64817b4e-076d-4592-88fc-e375787220ef}, !- Version UUID
  ,                                       !- Creation Timestamp
  ,                                       !- Version Timestamp
  {139fc39f-4a87-4eb1-bbcb-f01dd3168553}; !- Name of Object 1

OS:Material,
  {5df2ef60-8d4d-482d-8cc2-94de45b7d8c7}, !- Handle
  Expanded Polystyrene - Molded Beads - 2 in., ! Name
  VeryRough,                              ! Roughness
  0.0508,                                 ! Thickness {m}
  0.0352,                                 ! Conductivity {W/m-K}
  24,                                     ! Density {kg/m3}
  1210;                                   ! Specific Heat {J/kg-K}

OS:ComponentData,
  {8b159540-1bde-4a2a-8393-bd451c5fedd3}, !- Handle
  {34c0bc24-6735-4f7c-b84b-e5ad18c6477e}, !- Name
  {a7007fab-a539-494a-9247-3acea835a02a}, !- UUID
  {f6de52f0-4cbf-44f7-a4ef-9a6e9208764a}, !- Version UUID
  ,                                       !- Creation Timestamp
  ,                                       !- Version Timestamp
  {5df2ef60-8d4d-482d-8cc2-94de45b7d8c7}; !- Name of Object 1

OS:Material,
  {7e74e505-9fa4-4346-beab-f52806865d2a}, !- Handle
  Cellular Polyisocyanurate - Gaspermeable Facers - 1 in., ! Name
  Rough,                                  ! Roughness
  0.0254,                                 ! Thickness {m}
  0.0245,                                 ! Conductivity {W/m-K}
  32,                                     ! Density {kg/m3}
  920;                                    ! Specific Heat {J/kg-K}

OS:ComponentData,
  {2669f65a-bd92-4545-9a8e-e8d52f736455}, !- Handle
  {409a11af-65f5-44db-b4ba-4d77bec174a0}, !- Name
  {3ec0f3cc-389d-410c-8467-ca6a24738ec7}, !- UUID
  {a0b28369-561e-4eef-87dc-b9f8527c901f}, !- Version UUID
  ,                                       !- Creation Timestamp
  ,                                       !- Version Timestamp
  {7e74e505-9fa4-4346-beab-f52806865d2a}; !- Name of Object 1

OS:Schedule:Day,
  {a09de78e-b40d-4767-b6dc-cac628591bf2}, !- Handle
  All Weekends,                           !- Name
  {84cca58a-9890-4e00-82dd-566483f04355}, !- Schedule Type Limits Name
  ,                                       !- Interpolate to Timestep
  24,                                     !- Hour 1
  0,                                      !- Minute 1
  0.995;                                  !- Value Until Time 1

OS:Schedule:Day,
  {b9714e28-a04b-486f-9128-ee5ed01ae98f}, !- Handle
  All Weekdays,                           !- Name
  {84cca58a-9890-4e00-82dd-566483f04355}, !- Schedule Type Limits Name
  ,                                       !- Interpolate to Timestep
  24,                                     !- Hour 1
  0,                                      !- Minute 1
  0.995;                                  !- Value Until Time 1

OS:Schedule:Day,
  {cea849d5-39ce-47f0-9d9f-e4ee341af250}, !- Handle
  {97181300-acd5-46d8-a35e-d82ce4c006d9}, !- Name
  {7b85f46a-e6cd-4827-897b-a02f5847eefe}, !- Schedule Type Limits Name
  ,                                       !- Interpolate to Timestep
  7,                                      !- Hour 1
  0,                                      !- Minute 1
  23.6666666666667,                       !- Value Until Time 1
  17,                                     !- Hour 2
  45,                                     !- Minute 2
  15.3888888888889,                       !- Value Until Time 2
  24,                                     !- Hour 3
  0,                                      !- Minute 3
  23.8888888888889;                       !- Value Until Time 3

OS:Schedule:Day,
  {3f74a067-700e-4cc9-9a8a-4efd885f101f}, !- Handle
  {aef473ac-b6f4-43b0-a0ba-4df2015e861a}, !- Name
  {7b85f46a-e6cd-4827-897b-a02f5847eefe}, !- Schedule Type Limits Name
  ,                                       !- Interpolate to Timestep
  7,                                      !- Hour 1
  15,                                     !- Minute 1
  10,                                     !- Value Until Time 1
  19,                                     !- Hour 2
  0,                                      !- Minute 2
  21.4444444444444,                       !- Value Until Time 2
  24,                                     !- Hour 3
  0,                                      !- Minute 3
  10.0555555555556;                       !- Value Until Time 3

OS:Schedule:Day,
  {afa06fca-dbb5-42bf-9746-e17562d30212}, !- Handle
  {13402f19-203e-4898-b733-2dadf1e6ae94}, !- Name
  {f9a5bd77-c2de-44a6-b01f-bf7805527733}, !- Schedule Type Limits Name
  ,                                       !- Interpolate to Timestep
  24,                                     !- Hour 1
  0,                                      !- Minute 1
  23.8888888888889;                       !- Value Until Time 1

OS:Schedule:Day,
  {3a402485-12c5-4f6b-89a6-6870fe7bf8cd}, !- Handle
  {dacde7bf-23a4-4ce6-a633-369c5f0219e0}, !- Name
  {f9a5bd77-c2de-44a6-b01f-bf7805527733}, !- Schedule Type Limits Name
  ,                                       !- Interpolate to Timestep
  6,                                      !- Hour 1
  30,                                     !- Minute 1
  23.7777777777778,                       !- Value Until Time 1
  18,                                     !- Hour 2
  0,                                      !- Minute 2
  17.7777777777778,                       !- Value Until Time 2
  24,                                     !- Hour 3
  0,                                      !- Minute 3
  24;                                     !- Value Until Time 3

OS:Schedule:Day,
  {c7e9bd2e-ad5e-49da-8549-d4381f75c8ae}, !- Handle
  {2d49b01a-76a4-443f-bf20-5b0d3b68b2be}, !- Name
  {d9e9d7a5-1861-4891-864c-73eee4b7da09}, !- Schedule Type Limits Name
  ,                                       !- Interpolate to Timestep
  24,                                     !- Hour 1
  0,                                      !- Minute 1
  0.0575;                                 !- Value Until Time 1

OS:Schedule:Day,
  {2d396def-f16d-4240-9ea0-2cc20897c34b}, !- Handle
  {ddb53b4b-4cdb-4a21-98d3-f593a57e5e87}, !- Name
  {d9e9d7a5-1861-4891-864c-73eee4b7da09}, !- Schedule Type Limits Name
  ,                                       !- Interpolate to Timestep
  6,                                      !- Hour 1
  15,                                     !- Minute 1
  0.0475,                                 !- Value Until Time 1
  11,                                     !- Hour 2
  30,                                     !- Minute 2
  0.195,                                  !- Value Until Time 2
  13,                                     !- Hour 3
  0,                                      !- Minute 3
  0.39,                                   !- Value Until Time 3
  18,                                     !- Hour 4
  15,                                     !- Minute 4
  0.205,                                  !- Value Until Time 4
  24,                                     !- Hour 5
  0,                                      !- Minute 5
  0.0525;                                 !- Value Until Time 5

OS:Schedule:Day,
  {0fdd89da-c617-46a6-80ba-046dbe061521}, !- Handle
  {a8a739b5-ae53-4c5a-a142-adf0ad18159f}, !- Name
  {d3707874-bef4-4c9b-adc3-4ecc722ee0fc}, !- Schedule Type Limits Name
  ,                                       !- Interpolate to Timestep
  6,                                      !- Hour 1
  15,                                     !- Minute 1
  0.195,                                  !- Value Until Time 1
  11,                                     !- Hour 2
  30,                                     !- Minute 2
  0.9075,                                 !- Value Until Time 2
  12,                                     !- Hour 3
  30,                                     !- Minute 3
  0.515,                                  !- Value Until Time 3
  18,                                     !- Hour 4
  0,                                      !- Minute 4
  0.9025,                                 !- Value Until Time 4
  24,                                     !- Hour 5
  0,                                      !- Minute 5
  0.2025;                                 !- Value Until Time 5

OS:Schedule:Day,
  {e945f54e-c521-43e9-9f00-05e6b7cc1cf1}, !- Handle
  {e21428d0-ece7-4338-ac7f-3d33184e2653}, !- Name
  {d3707874-bef4-4c9b-adc3-4ecc722ee0fc}, !- Schedule Type Limits Name
  ,                                       !- Interpolate to Timestep
  5,                                      !- Hour 1
  45,                                     !- Minute 1
  0.1975,                                 !- Value Until Time 1
  11,                                     !- Hour 2
  0,                                      !- Minute 2
  0.8975,                                 !- Value Until Time 2
  12,                                     !- Hour 3
  0,                                      !- Minute 3
  0.3725,                                 !- Value Until Time 3
  18,                                     !- Hour 4
  0,                                      !- Minute 4
  0.9,                                    !- Value Until Time 4
  24,                                     !- Hour 5
  0,                                      !- Minute 5
  0.2;                                    !- Value Until Time 5

OS:Schedule:Day,
  {421ddcec-ba21-4932-918e-e643fc37d333}, !- Handle
  {f29a7d0d-585a-490c-bada-e0c5f19741e7}, !- Name
  {ef3ff112-cce9-43f6-8f92-3ac4433bc94d}, !- Schedule Type Limits Name
  ,                                       !- Interpolate to Timestep
  24,                                     !- Hour 1
  0,                                      !- Minute 1
  0.1975;                                 !- Value Until Time 1

OS:Schedule:Day,
  {ed2c9685-8dfa-4949-9e04-c308af7d616e}, !- Handle
  {74a107d8-1237-48d0-9bbc-9a9f3d627154}, !- Name
  {ef3ff112-cce9-43f6-8f92-3ac4433bc94d}, !- Schedule Type Limits Name
  ,                                       !- Interpolate to Timestep
  6,                                      !- Hour 1
  0,                                      !- Minute 1
  0.0975,                                 !- Value Until Time 1
  11,                                     !- Hour 2
  45,                                     !- Minute 2
  0.9,                                    !- Value Until Time 2
  13,                                     !- Hour 3
  15,                                     !- Minute 3
  0.5075,                                 !- Value Until Time 3
  18,                                     !- Hour 4
  0,                                      !- Minute 4
  0.895,                                  !- Value Until Time 4
  24,                                     !- Hour 5
  0,                                      !- Minute 5
  0.0875;                                 !- Value Until Time 5

OS:Schedule:Day,
  {51b5d6cc-f6e8-494d-9860-e7b5b9e3755b}, !- Handle
  {06af0aee-a23e-4c50-8423-88c208352593}, !- Name
  {6ce1fcb6-b29a-44da-8147-d5d14e75ed8d}, !- Schedule Type Limits Name
  ,                                       !- Interpolate to Timestep
  24,                                     !- Hour 1
  0,                                      !- Minute 1
  0;                                      !- Value Until Time 1

OS:Schedule:Day,
  {13ada58e-7ad6-4b52-a1ba-b38403b84e54}, !- Handle
  {b8347dc3-ffb7-4cc9-91de-0604f28221a9}, !- Name
  {6ce1fcb6-b29a-44da-8147-d5d14e75ed8d}, !- Schedule Type Limits Name
  ,                                       !- Interpolate to Timestep
  6,                                      !- Hour 1
  30,                                     !- Minute 1
  0,                                      !- Value Until Time 1
  11,                                     !- Hour 2
  15,                                     !- Minute 2
  0.9025,                                 !- Value Until Time 2
  12,                                     !- Hour 3
  45,                                     !- Minute 3
  0.4975,                                 !- Value Until Time 3
  18,                                     !- Hour 4
  0,                                      !- Minute 4
  0.9025,                                 !- Value Until Time 4
  24,                                     !- Hour 5
  0,                                      !- Minute 5
  0;                                      !- Value Until Time 5

OS:Schedule:Ruleset,
  {c2bde780-9376-4c1d-a915-3ff3dfb31cc8}, !- Handle
  Hvac,                                   !- Name
  {84cca58a-9890-4e00-82dd-566483f04355}, !- Schedule Type Limits Name
  {9f9582e3-2ef8-485a-b135-7d45d7524e84}, !- Default Day Schedule Name
  {32869347-57c5-44e4-8554-4280cf3f69f0}, !- Summer Design Day Schedule Name
  {89566b47-4446-4899-8f05-344fcdfcad33}; !- Winter Design Day Schedule Name

OS:Schedule:Day,
  {9f9582e3-2ef8-485a-b135-7d45d7524e84}, !- Handle
  {d2735b73-7871-4bdb-ad1d-6d634648c95a}, !- Name
  {84cca58a-9890-4e00-82dd-566483f04355}, !- Schedule Type Limits Name
  ,                                       !- Interpolate to Timestep
  24,                                     !- Hour 1
  0,                                      !- Minute 1
  0;                                      !- Value Until Time 1

OS:Schedule:Rule,
  {0bde2572-dc10-4235-a063-20f31a9a0ad5}, !- Handle
  Hvac Default Weekday Schedule,          !- Name
  {c2bde780-9376-4c1d-a915-3ff3dfb31cc8}, !- Schedule Ruleset Name
  1,                                      !- Rule Order
  {d2499cb7-251d-43a4-b0fb-41e89c6db25b}, !- Day Schedule Name
  No,                                     !- Apply Sunday
  Yes,                                    !- Apply Monday
  Yes,                                    !- Apply Tuesday
  Yes,                                    !- Apply Wednesday
  Yes,                                    !- Apply Thursday
  Yes,                                    !- Apply Friday
  No;                                     !- Apply Saturday

OS:Schedule:Day,
  {d2499cb7-251d-43a4-b0fb-41e89c6db25b}, !- Handle
  {80f3ce3c-3c5a-4d01-a6d9-9d4aa4f2c57e}, !- Name
  {84cca58a-9890-4e00-82dd-566483f04355}, !- Schedule Type Limits Name
  ,                                       !- Interpolate to Timestep
  24,                                     !- Hour 1
  0,                                      !- Minute 1
  0.995;                                  !- Value Until Time 1

OS:Schedule:Rule,
  {eff7ad12-dcba-435e-86ff-1a95b20de771}, !- Handle
  Hvac Default Weekend Schedule,          !- Name
  {c2bde780-9376-4c1d-a915-3ff3dfb31cc8}, !- Schedule Ruleset Name
  0,                                      !- Rule Order
  {0084dcf4-4396-4f3c-b284-83f9bac4b615}, !- Day Schedule Name
  Yes,                                    !- Apply Sunday
  No,                                     !- Apply Monday
  No,                                     !- Apply Tuesday
  No,                                     !- Apply Wednesday
  No,                                     !- Apply Thursday
  No,                                     !- Apply Friday
  Yes;                                    !- Apply Saturday

OS:Schedule:Day,
  {0084dcf4-4396-4f3c-b284-83f9bac4b615}, !- Handle
  {4219e9ad-d1c1-44f4-8dcc-37b4bb89a07e}, !- Name
  {84cca58a-9890-4e00-82dd-566483f04355}, !- Schedule Type Limits Name
  ,                                       !- Interpolate to Timestep
  24,                                     !- Hour 1
  0,                                      !- Minute 1
  0.995;                                  !- Value Until Time 1

OS:Schedule:Day,
  {a74207ae-ed37-4019-9c7e-314157544302}, !- Handle
  Hvac Winter Design Day,                 !- Name
  ,                                       !- Schedule Type Limits Name
  ,                                       !- Interpolate to Timestep
  24,                                     !- Hour 1
  0,                                      !- Minute 1
  0.995;                                  !- Value Until Time 1

OS:Schedule:Day,
  {89566b47-4446-4899-8f05-344fcdfcad33}, !- Handle
  {95cf6e04-ae51-4676-a184-d695e6cfb3b7}, !- Name
  {84cca58a-9890-4e00-82dd-566483f04355}, !- Schedule Type Limits Name
  ,                                       !- Interpolate to Timestep
  24,                                     !- Hour 1
  0,                                      !- Minute 1
  0.995;                                  !- Value Until Time 1

OS:Schedule:Day,
  {3846c86a-642c-4b09-b577-95707da856c1}, !- Handle
  Hvac Summer Design Day,                 !- Name
  ,                                       !- Schedule Type Limits Name
  ,                                       !- Interpolate to Timestep
  24,                                     !- Hour 1
  0,                                      !- Minute 1
  0.995;                                  !- Value Until Time 1

OS:Schedule:Day,
  {32869347-57c5-44e4-8554-4280cf3f69f0}, !- Handle
  {5b4b1f8f-1b2d-48bf-a038-9825937e7f3b}, !- Name
  {84cca58a-9890-4e00-82dd-566483f04355}, !- Schedule Type Limits Name
  ,                                       !- Interpolate to Timestep
  24,                                     !- Hour 1
  0,                                      !- Minute 1
  0.995;                                  !- Value Until Time 1

OS:Schedule:Ruleset,
  {3111b9b9-e81c-455f-88f9-c90843431a5f}, !- Handle
  Bldg lvl heat,                          !- Name
  {7b85f46a-e6cd-4827-897b-a02f5847eefe}, !- Schedule Type Limits Name
  {77416e20-a532-4887-b42e-a47dc58dfd09}, !- Default Day Schedule Name
  {486b70a8-f9af-4231-85bd-9137ec8e89d4}, !- Summer Design Day Schedule Name
  {fb21969a-8ca6-48ce-9dc2-eee2158394eb}; !- Winter Design Day Schedule Name

OS:Schedule:Day,
  {77416e20-a532-4887-b42e-a47dc58dfd09}, !- Handle
  {0c83e197-c85d-4757-878b-8f2eec76be39}, !- Name
  {7b85f46a-e6cd-4827-897b-a02f5847eefe}, !- Schedule Type Limits Name
  ,                                       !- Interpolate to Timestep
  24,                                     !- Hour 1