
OS:Version,
  {0957b3be-babd-4811-880f-e5a075e2672c}, ! Handle
  0.9.3;                                  ! Version Identifier

OS:BuildingStory,
  {87407feb-89d5-4801-981c-b27ad9bda6a5}, ! Handle
  Story 1,                                ! Name
  0,                                      ! Nominal Z Coordinate {m}
  4,                                      ! Nominal Floor to Floor Height {m}
  ,                                       ! Default Construction Set Name
  ,                                       ! Default Schedule Set Name
  ;                                       ! Group Rendering Name

OS:Space,
  {765d1ad6-43d7-4027-98a1-fdb4616d699e}, ! Handle
  Story 1 West Perimeter Space,           ! Name
  ,                                       ! Space Type Name
  ,                                       ! Default Construction Set Name
  ,                                       ! Default Schedule Set Name
  -0,                                     ! Direction of Relative North {deg}
  0,                                      ! X Origin {m}
  0,                                      ! Y Origin {m}
  0,                                      ! Z Origin {m}
  {87407feb-89d5-4801-981c-b27ad9bda6a5}, ! Building Story Name
  {5a0392e6-aefa-4237-81e0-a5c25c49e8d0}; ! Thermal Zone Name

OS:Surface,
  {e80fb63e-39ee-4b71-900f-a761e962f058}, ! Handle
  Surface 1,                              ! Name
  Floor,                                  ! Surface Type
  ,                                       ! Construction Name
  {765d1ad6-43d7-4027-98a1-fdb4616d699e}, ! Space Name
  Ground,                                 ! Outside Boundary Condition
  ,                                       ! Outside Boundary Condition Object
  NoSun,                                  ! Sun Exposure
  NoWind,                                 ! Wind Exposure
  ,                                       ! View Factor to Ground
  ,                                       ! Number of Vertices
  0, 0, 0,                                ! X,Y,Z Vertex 1 {m}
  0, 50, 0,                               ! X,Y,Z Vertex 2 {m}
  3, 47, 0,                               ! X,Y,Z Vertex 3 {m}
  3, 3, 0;                                ! X,Y,Z Vertex 4 {m}

OS:Surface,
  {3171a3a7-b507-4dca-a64d-63e4e90ad78e}, ! Handle
  Surface 2,                              ! Name
  Wall,                                   ! Surface Type
  ,                                       ! Construction Name
  {765d1ad6-43d7-4027-98a1-fdb4616d699e}, ! Space Name
  Outdoors,                               ! Outside Boundary Condition
  ,                                       ! Outside Boundary Condition Object
  SunExposed,                             ! Sun Exposure
  WindExposed,                            ! Wind Exposure
  ,                                       ! View Factor to Ground
  ,                                       ! Number of Vertices
  0, 50, 4,                               ! X,Y,Z Vertex 1 {m}
  0, 50, 0,                               ! X,Y,Z Vertex 2 {m}
  0, 0, 0,                                ! X,Y,Z Vertex 3 {m}
  0, 0, 4;                                ! X,Y,Z Vertex 4 {m}

OS:Surface,
  {691a4f9e-e86f-40f3-87a3-fc3468ff698b}, ! Handle
  Surface 3,                              ! Name
  Wall,                                   ! Surface Type
  ,                                       ! Construction Name
  {765d1ad6-43d7-4027-98a1-fdb4616d699e}, ! Space Name
  Surface,                                ! Outside Boundary Condition
  {3ff25aee-8e26-49b0-8750-278d3424d7a0}, ! Outside Boundary Condition Object
  NoSun,                                  ! Sun Exposure
  NoWind,                                 ! Wind Exposure
  ,                                       ! View Factor to Ground
  ,                                       ! Number of Vertices
  3, 47, 4,                               ! X,Y,Z Vertex 1 {m}
  3, 47, 0,                               ! X,Y,Z Vertex 2 {m}
  0, 50, 0,                               ! X,Y,Z Vertex 3 {m}
  0, 50, 4;                               ! X,Y,Z Vertex 4 {m}

OS:Surface,
  {3ef579c2-4b50-4db5-846a-9aca6072d2a8}, ! Handle
  Surface 4,                              ! Name
  Wall,                                   ! Surface Type
  ,                                       ! Construction Name
  {765d1ad6-43d7-4027-98a1-fdb4616d699e}, ! Space Name
  Surface,                                ! Outside Boundary Condition
  {c76e341a-64fa-4fab-984f-f46ee03dd24b}, ! Outside Boundary Condition Object
  NoSun,                                  ! Sun Exposure
  NoWind,                                 ! Wind Exposure
  ,                                       ! View Factor to Ground
  ,                                       ! Number of Vertices
  3, 3, 4,                                ! X,Y,Z Vertex 1 {m}
  3, 3, 0,                                ! X,Y,Z Vertex 2 {m}
  3, 47, 0,                               ! X,Y,Z Vertex 3 {m}
  3, 47, 4;                               ! X,Y,Z Vertex 4 {m}

OS:Surface,
  {6ace62a3-de9c-4fa1-b369-3a838c4cfdf9}, ! Handle
  Surface 5,                              ! Name
  Wall,                                   ! Surface Type
  ,                                       ! Construction Name
  {765d1ad6-43d7-4027-98a1-fdb4616d699e}, ! Space Name
  Surface,                                ! Outside Boundary Condition
  {a9348d72-2083-4e9f-9688-9517c536178d}, ! Outside Boundary Condition Object
  NoSun,                                  ! Sun Exposure
  NoWind,                                 ! Wind Exposure
  ,                                       ! View Factor to Ground
  ,                                       ! Number of Vertices
  0, 0, 4,                                ! X,Y,Z Vertex 1 {m}
  0, 0, 0,                                ! X,Y,Z Vertex 2 {m}
  3, 3, 0,                                ! X,Y,Z Vertex 3 {m}
  3, 3, 4;                                ! X,Y,Z Vertex 4 {m}

OS:Surface,
  {69aa7e5f-bb67-4558-b75e-3212973fb515}, ! Handle
  Surface 6,                              ! Name
  RoofCeiling,                            ! Surface Type
  ,                                       ! Construction Name
  {765d1ad6-43d7-4027-98a1-fdb4616d699e}, ! Space Name
  Surface,                                ! Outside Boundary Condition
  {2c4134c2-abf6-4880-9460-db766d5fc4c4}, ! Outside Boundary Condition Object
  NoSun,                                  ! Sun Exposure
  NoWind,                                 ! Wind Exposure
  ,                                       ! View Factor to Ground
  ,                                       ! Number of Vertices
  3, 3, 4,                                ! X,Y,Z Vertex 1 {m}
  3, 47, 4,                               ! X,Y,Z Vertex 2 {m}
  0, 50, 4,                               ! X,Y,Z Vertex 3 {m}
  0, 0, 4;                                ! X,Y,Z Vertex 4 {m}

OS:Space,
  {05c9af03-1a4d-4140-976b-5e0e5760f7aa}, ! Handle
  Story 1 North Perimeter Space,          ! Name
  ,                                       ! Space Type Name
  ,                                       ! Default Construction Set Name
  ,                                       ! Default Schedule Set Name
  -0,                                     ! Direction of Relative North {deg}
  3,                                      ! X Origin {m}
  47,                                     ! Y Origin {m}
  0,                                      ! Z Origin {m}
  {87407feb-89d5-4801-981c-b27ad9bda6a5}, ! Building Story Name
  {f1cfe1d4-da4b-48d7-8737-6aed254f0fa1}; ! Thermal Zone Name

OS:Surface,
  {34bf79a7-c161-4584-86a3-e39f07fa7f2d}, ! Handle
  Surface 7,                              ! Name
  Floor,                                  ! Surface Type
  ,                                       ! Construction Name
  {05c9af03-1a4d-4140-976b-5e0e5760f7aa}, ! Space Name
  Ground,                                 ! Outside Boundary Condition
  ,                                       ! Outside Boundary Condition Object
  NoSun,                                  ! Sun Exposure
  NoWind,                                 ! Wind Exposure
  ,                                       ! View Factor to Ground
  ,                                       ! Number of Vertices
  -3, 3, 0,                               ! X,Y,Z Vertex 1 {m}
  97, 3, 0,                               ! X,Y,Z Vertex 2 {m}
  94, 0, 0,                               ! X,Y,Z Vertex 3 {m}
  0, 0, 0;                                ! X,Y,Z Vertex 4 {m}

OS:Surface,
  {45e676da-ec2b-4d56-85fa-c52cc6d0df44}, ! Handle
  Surface 8,                              ! Name
  Wall,                                   ! Surface Type
  ,                                       ! Construction Name
  {05c9af03-1a4d-4140-976b-5e0e5760f7aa}, ! Space Name
  Outdoors,                               ! Outside Boundary Condition
  ,                                       ! Outside Boundary Condition Object
  SunExposed,                             ! Sun Exposure
  WindExposed,                            ! Wind Exposure
  ,                                       ! View Factor to Ground
  ,                                       ! Number of Vertices
  97, 3, 4,                               ! X,Y,Z Vertex 1 {m}
  97, 3, 0,                               ! X,Y,Z Vertex 2 {m}
  -3, 3, 0,                               ! X,Y,Z Vertex 3 {m}
  -3, 3, 4;                               ! X,Y,Z Vertex 4 {m}

OS:Surface,
  {dcdc6dcc-8e52-45d0-9d1c-4acc5f0430fc}, ! Handle
  Surface 9,                              ! Name
  Wall,                                   ! Surface Type
  ,                                       ! Construction Name
  {05c9af03-1a4d-4140-976b-5e0e5760f7aa}, ! Space Name
  Surface,                                ! Outside Boundary Condition
  {13354526-4ed2-4d8d-9c54-1ac2ed02fd28}, ! Outside Boundary Condition Object
  NoSun,                                  ! Sun Exposure
  NoWind,                                 ! Wind Exposure
  ,                                       ! View Factor to Ground
  ,                                       ! Number of Vertices
  94, 0, 4,                               ! X,Y,Z Vertex 1 {m}
  94, 0, 0,                               ! X,Y,Z Vertex 2 {m}
  97, 3, 0,                               ! X,Y,Z Vertex 3 {m}
  97, 3, 4;                               ! X,Y,Z Vertex 4 {m}

OS:Surface,
  {e8b49a58-20ee-4372-85e7-47759c9d3e6a}, ! Handle
  Surface 10,                             ! Name
  Wall,                                   ! Surface Type
  ,                                       ! Construction Name
  {05c9af03-1a4d-4140-976b-5e0e5760f7aa}, ! Space Name
  Surface,                                ! Outside Boundary Condition
  {3aab8922-4110-4c68-8a4b-5bc4bfe40a79}, ! Outside Boundary Condition Object
  NoSun,                                  ! Sun Exposure
  NoWind,                                 ! Wind Exposure
  ,                                       ! View Factor to Ground
  ,                                       ! Number of Vertices
  0, 0, 4,                                ! X,Y,Z Vertex 1 {m}
  0, 0, 0,                                ! X,Y,Z Vertex 2 {m}
  94, 0, 0,                               ! X,Y,Z Vertex 3 {m}
  94, 0, 4;                               ! X,Y,Z Vertex 4 {m}

OS:Surface,
  {3ff25aee-8e26-49b0-8750-278d3424d7a0}, ! Handle
  Surface 11,                             ! Name
  Wall,                                   ! Surface Type
  ,                                       ! Construction Name
  {05c9af03-1a4d-4140-976b-5e0e5760f7aa}, ! Space Name
  Surface,                                ! Outside Boundary Condition
  {691a4f9e-e86f-40f3-87a3-fc3468ff698b}, ! Outside Boundary Condition Object
  NoSun,                                  ! Sun Exposure
  NoWind,                                 ! Wind Exposure
  ,                                       ! View Factor to Ground
  ,                                       ! Number of Vertices
  -3, 3, 4,                               ! X,Y,Z Vertex 1 {m}
  -3, 3, 0,                               ! X,Y,Z Vertex 2 {m}
  0, 0, 0,                                ! X,Y,Z Vertex 3 {m}
  0, 0, 4;                                ! X,Y,Z Vertex 4 {m}

OS:Surface,
  {e6ee4517-e19f-4ad4-8dd0-ac688fbba8b2}, ! Handle
  Surface 12,                             ! Name
  RoofCeiling,                            ! Surface Type
  ,                                       ! Construction Name
  {05c9af03-1a4d-4140-976b-5e0e5760f7aa}, ! Space Name
  Surface,                                ! Outside Boundary Condition
  {83aa8b76-f5a6-47a2-811c-0c1029a81e05}, ! Outside Boundary Condition Object
  NoSun,                                  ! Sun Exposure
  NoWind,                                 ! Wind Exposure
  ,                                       ! View Factor to Ground
  ,                                       ! Number of Vertices
  0, 0, 4,                                ! X,Y,Z Vertex 1 {m}
  94, 0, 4,                               ! X,Y,Z Vertex 2 {m}
  97, 3, 4,                               ! X,Y,Z Vertex 3 {m}
  -3, 3, 4;                               ! X,Y,Z Vertex 4 {m}

OS:Space,
  {f85fda5a-99f0-4546-b691-6ee9830a760b}, ! Handle
  Story 1 East Perimeter Space,           ! Name
  ,                                       ! Space Type Name
  ,                                       ! Default Construction Set Name
  ,                                       ! Default Schedule Set Name
  -0,                                     ! Direction of Relative North {deg}
  97,                                     ! X Origin {m}
  3,                                      ! Y Origin {m}
  0,                                      ! Z Origin {m}
  {87407feb-89d5-4801-981c-b27ad9bda6a5}, ! Building Story Name
  {0b3ac8f9-8d07-47a1-9887-294f3d966498}; ! Thermal Zone Name

OS:Surface,
  {b05aa450-5ba9-4e46-9a40-56ad58f70bc8}, ! Handle
  Surface 13,                             ! Name
  Floor,                                  ! Surface Type
  ,                                       ! Construction Name
  {f85fda5a-99f0-4546-b691-6ee9830a760b}, ! Space Name
  Ground,                                 ! Outside Boundary Condition
  ,                                       ! Outside Boundary Condition Object
  NoSun,                                  ! Sun Exposure
  NoWind,                                 ! Wind Exposure
  ,                                       ! View Factor to Ground
  ,                                       ! Number of Vertices
  3, 47, 0,                               ! X,Y,Z Vertex 1 {m}
  3, -3, 0,                               ! X,Y,Z Vertex 2 {m}
  0, 0, 0,                                ! X,Y,Z Vertex 3 {m}
  0, 44, 0;                               ! X,Y,Z Vertex 4 {m}

OS:Surface,
  {50d852f3-6470-4331-b525-64852afa435a}, ! Handle
  Surface 14,                             ! Name
  Wall,                                   ! Surface Type
  ,                                       ! Construction Name
  {f85fda5a-99f0-4546-b691-6ee9830a760b}, ! Space Name
  Outdoors,                               ! Outside Boundary Condition
  ,                                       ! Outside Boundary Condition Object
  SunExposed,                             ! Sun Exposure
  WindExposed,                            ! Wind Exposure
  ,                                       ! View Factor to Ground
  ,                                       ! Number of Vertices
  3, -3, 4,                               ! X,Y,Z Vertex 1 {m}
  3, -3, 0,                               ! X,Y,Z Vertex 2 {m}
  3, 47, 0,                               ! X,Y,Z Vertex 3 {m}
  3, 47, 4;                               ! X,Y,Z Vertex 4 {m}

OS:Surface,
  {61c063d9-93e3-4902-b742-01847615650e}, ! Handle
  Surface 15,                             ! Name
  Wall,                                   ! Surface Type
  ,                                       ! Construction Name
  {f85fda5a-99f0-4546-b691-6ee9830a760b}, ! Space Name
  Surface,                                ! Outside Boundary Condition
  {1ff57a54-bafb-46d1-b62f-07b90b901de2}, ! Outside Boundary Condition Object
  NoSun,                                  ! Sun Exposure
  NoWind,                                 ! Wind Exposure
  ,                                       ! View Factor to Ground
  ,                                       ! Number of Vertices
  0, 0, 4,                                ! X,Y,Z Vertex 1 {m}
  0, 0, 0,                                ! X,Y,Z Vertex 2 {m}
  3, -3, 0,                               ! X,Y,Z Vertex 3 {m}
  3, -3, 4;                               ! X,Y,Z Vertex 4 {m}

OS:Surface,
  {fae5d2c8-2596-4738-98f1-bf7339828655}, ! Handle
  Surface 16,                             ! Name
  Wall,                                   ! Surface Type
  ,                                       ! Construction Name
  {f85fda5a-99f0-4546-b691-6ee9830a760b}, ! Space Name
  Surface,                                ! Outside Boundary Condition
  {3793231c-5cec-457f-b8e7-737b43e491e2}, ! Outside Boundary Condition Object
  NoSun,                                  ! Sun Exposure
  NoWind,                                 ! Wind Exposure
  ,                                       ! View Factor to Ground
  ,                                       ! Number of Vertices
  0, 44, 4,                               ! X,Y,Z Vertex 1 {m}
  0, 44, 0,                               ! X,Y,Z Vertex 2 {m}
  0, 0, 0,                                ! X,Y,Z Vertex 3 {m}
  0, 0, 4;                                ! X,Y,Z Vertex 4 {m}

OS:Surface,
  {13354526-4ed2-4d8d-9c54-1ac2ed02fd28}, ! Handle
  Surface 17,                             ! Name
  Wall,                                   ! Surface Type
  ,                                       ! Construction Name
  {f85fda5a-99f0-4546-b691-6ee9830a760b}, ! Space Name
  Surface,                                ! Outside Boundary Condition
  {dcdc6dcc-8e52-45d0-9d1c-4acc5f0430fc}, ! Outside Boundary Condition Object
  NoSun,                                  ! Sun Exposure
  NoWind,                                 ! Wind Exposure
  ,                                       ! View Factor to Ground
  ,                                       ! Number of Vertices
  3, 47, 4,                               ! X,Y,Z Vertex 1 {m}
  3, 47, 0,                               ! X,Y,Z Vertex 2 {m}
  0, 44, 0,                               ! X,Y,Z Vertex 3 {m}
  0, 44, 4;                               ! X,Y,Z Vertex 4 {m}

OS:Surface,
  {f1fe1b2e-a9f3-4339-8769-36ec49624189}, ! Handle
  Surface 18,                             ! Name
  RoofCeiling,                            ! Surface Type
  ,                                       ! Construction Name
  {f85fda5a-99f0-4546-b691-6ee9830a760b}, ! Space Name
  Surface,                                ! Outside Boundary Condition
  {a85afe6b-9080-4456-a540-a061d6f67c43}, ! Outside Boundary Condition Object
  NoSun,                                  ! Sun Exposure
  NoWind,                                 ! Wind Exposure
  ,                                       ! View Factor to Ground
  ,                                       ! Number of Vertices
  0, 44, 4,                               ! X,Y,Z Vertex 1 {m}
  0, 0, 4,                                ! X,Y,Z Vertex 2 {m}
  3, -3, 4,                               ! X,Y,Z Vertex 3 {m}
  3, 47, 4;                               ! X,Y,Z Vertex 4 {m}

OS:Space,
  {2ac1a73c-9d4a-4c31-94b9-8d9ad1ad5cfc}, ! Handle
  Story 1 South Perimeter Space,          ! Name
  ,                                       ! Space Type Name
  ,                                       ! Default Construction Set Name
  ,                                       ! Default Schedule Set Name
  -0,                                     ! Direction of Relative North {deg}
  0,                                      ! X Origin {m}
  0,                                      ! Y Origin {m}
  0,                                      ! Z Origin {m}
  {87407feb-89d5-4801-981c-b27ad9bda6a5}, ! Building Story Name
  {79a1e7b9-0e9c-4395-9fb3-44e196dff4fa}; ! Thermal Zone Name

OS:Surface,
  {5eb39396-abc8-40c3-adaf-f511e8bf2d4c}, ! Handle
  Surface 19,                             ! Name
  Floor,                                  ! Surface Type
  ,                                       ! Construction Name
  {2ac1a73c-9d4a-4c31-94b9-8d9ad1ad5cfc}, ! Space Name
  Ground,                                 ! Outside Boundary Condition
  ,                                       ! Outside Boundary Condition Object
  NoSun,                                  ! Sun Exposure
  NoWind,                                 ! Wind Exposure
  ,                                       ! View Factor to Ground
  ,                                       ! Number of Vertices
  100, 0, 0,                              ! X,Y,Z Vertex 1 {m}
  0, 0, 0,                                ! X,Y,Z Vertex 2 {m}
  3, 3, 0,                                ! X,Y,Z Vertex 3 {m}
  97, 3, 0;                               ! X,Y,Z Vertex 4 {m}

OS:Surface,
  {335997f8-ad6c-4d72-a6f3-7799d2e5bc82}, ! Handle
  Surface 20,                             ! Name
  Wall,                                   ! Surface Type
  ,                                       ! Construction Name
  {2ac1a73c-9d4a-4c31-94b9-8d9ad1ad5cfc}, ! Space Name
  Outdoors,                               ! Outside Boundary Condition
  ,                                       ! Outside Boundary Condition Object
  SunExposed,                             ! Sun Exposure
  WindExposed,                            ! Wind Exposure
  ,                                       ! View Factor to Ground
  ,                                       ! Number of Vertices
  0, 0, 4,                                ! X,Y,Z Vertex 1 {m}
  0, 0, 0,                                ! X,Y,Z Vertex 2 {m}
  100, 0, 0,                              ! X,Y,Z Vertex 3 {m}
  100, 0, 4;                              ! X,Y,Z Vertex 4 {m}

OS:Surface,
  {a9348d72-2083-4e9f-9688-9517c536178d}, ! Handle
  Surface 21,                             ! Name
  Wall,                                   ! Surface Type
  ,                                       ! Construction Name
  {2ac1a73c-9d4a-4c31-94b9-8d9ad1ad5cfc}, ! Space Name
  Surface,                                ! Outside Boundary Condition
  {6ace62a3-de9c-4fa1-b369-3a838c4cfdf9}, ! Outside Boundary Condition Object
  NoSun,                                  ! Sun Exposure
  NoWind,                                 ! Wind Exposure
  ,                                       ! View Factor to Ground
  ,                                       ! Number of Vertices
  3, 3, 4,                                ! X,Y,Z Vertex 1 {m}
  3, 3, 0,                                ! X,Y,Z Vertex 2 {m}
  0, 0, 0,                                ! X,Y,Z Vertex 3 {m}
  0, 0, 4;                                ! X,Y,Z Vertex 4 {m}

OS:Surface,
  {2186ea15-2ea7-4ef2-8f59-9aaa7d1b2a12}, ! Handle
  Surface 22,                             ! Name
  Wall,                                   ! Surface Type
  ,                                       ! Construction Name
  {2ac1a73c-9d4a-4c31-94b9-8d9ad1ad5cfc}, ! Space Name
  Surface,                                ! Outside Boundary Condition
  {47053dc9-25b1-42db-90f2-d75df552631c}, ! Outside Boundary Condition Object
  NoSun,                                  ! Sun Exposure
  NoWind,                                 ! Wind Exposure
  ,                                       ! View Factor to Ground
  ,                                       ! Number of Vertices
  97, 3, 4,                               ! X,Y,Z Vertex 1 {m}
  97, 3, 0,                               ! X,Y,Z Vertex 2 {m}
  3, 3, 0,                                ! X,Y,Z Vertex 3 {m}
  3, 3, 4;                                ! X,Y,Z Vertex 4 {m}

OS:Surface,
  {1ff57a54-bafb-46d1-b62f-07b90b901de2}, ! Handle
  Surface 23,                             ! Name
  Wall,                                   ! Surface Type
  ,                                       ! Construction Name
  {2ac1a73c-9d4a-4c31-94b9-8d9ad1ad5cfc}, ! Space Name
  Surface,                                ! Outside Boundary Condition
  {61c063d9-93e3-4902-b742-01847615650e}, ! Outside Boundary Condition Object
  NoSun,                                  ! Sun Exposure
  NoWind,                                 ! Wind Exposure
  ,                                       ! View Factor to Ground
  ,                                       ! Number of Vertices
  100, 0, 4,                              ! X,Y,Z Vertex 1 {m}
  100, 0, 0,                              ! X,Y,Z Vertex 2 {m}
  97, 3, 0,                               ! X,Y,Z Vertex 3 {m}
  97, 3, 4;                               ! X,Y,Z Vertex 4 {m}

OS:Surface,
  {c0cc0fd8-4209-407e-b3cd-7ced954e4aa4}, ! Handle
  Surface 24,                             ! Name
  RoofCeiling,                            ! Surface Type
  ,                                       ! Construction Name
  {2ac1a73c-9d4a-4c31-94b9-8d9ad1ad5cfc}, ! Space Name
  Surface,                                ! Outside Boundary Condition
  {88f9870f-02f2-439f-8b80-c714929a7a77}, ! Outside Boundary Condition Object
  NoSun,                                  ! Sun Exposure
  NoWind,                                 ! Wind Exposure
  ,                                       ! View Factor to Ground
  ,                                       ! Number of Vertices
  97, 3, 4,                               ! X,Y,Z Vertex 1 {m}
  3, 3, 4,                                ! X,Y,Z Vertex 2 {m}
  0, 0, 4,                                ! X,Y,Z Vertex 3 {m}
  100, 0, 4;                              ! X,Y,Z Vertex 4 {m}

OS:Space,
  {2e82151e-a3ee-4a4f-94bf-6465b474ddcb}, ! Handle
  Story 1 Core Space,                     ! Name
  ,                                       ! Space Type Name
  ,                                       ! Default Construction Set Name
  ,                                       ! Default Schedule Set Name
  -0,                                     ! Direction of Relative North {deg}
  3,                                      ! X Origin {m}
  3,                                      ! Y Origin {m}
  0,                                      ! Z Origin {m}
  {87407feb-89d5-4801-981c-b27ad9bda6a5}, ! Building Story Name
  {d35a4a06-5609-448e-9ee3-9260bd85e7ab}; ! Thermal Zone Name

OS:Surface,
  {a764ecd9-659b-44bc-8560-4f46c6e0be18}, ! Handle
  Surface 25,                             ! Name
  Floor,                                  ! Surface Type
  ,                                       ! Construction Name
  {2e82151e-a3ee-4a4f-94bf-6465b474ddcb}, ! Space Name
  Ground,                                 ! Outside Boundary Condition
  ,                                       ! Outside Boundary Condition Object
  NoSun,                                  ! Sun Exposure
  NoWind,                                 ! Wind Exposure
  ,                                       ! View Factor to Ground
  ,                                       ! Number of Vertices
  0, 0, 0,                                ! X,Y,Z Vertex 1 {m}
  0, 44, 0,                               ! X,Y,Z Vertex 2 {m}
  94, 44, 0,                              ! X,Y,Z Vertex 3 {m}
  94, 0, 0;                               ! X,Y,Z Vertex 4 {m}

OS:Surface,
  {c76e341a-64fa-4fab-984f-f46ee03dd24b}, ! Handle
  Surface 26,                             ! Name
  Wall,                                   ! Surface Type
  ,                                       ! Construction Name
  {2e82151e-a3ee-4a4f-94bf-6465b474ddcb}, ! Space Name
  Surface,                                ! Outside Boundary Condition
  {3ef579c2-4b50-4db5-846a-9aca6072d2a8}, ! Outside Boundary Condition Object
  NoSun,                                  ! Sun Exposure
  NoWind,                                 ! Wind Exposure
  ,                                       ! View Factor to Ground
  ,                                       ! Number of Vertices
  0, 44, 4,                               ! X,Y,Z Vertex 1 {m}
  0, 44, 0,                               ! X,Y,Z Vertex 2 {m}
  0, 0, 0,                                ! X,Y,Z Vertex 3 {m}
  0, 0, 4;                                ! X,Y,Z Vertex 4 {m}

OS:Surface,
  {3aab8922-4110-4c68-8a4b-5bc4bfe40a79}, ! Handle
  Surface 27,                             ! Name
  Wall,                                   ! Surface Type
  ,                                       ! Construction Name
  {2e82151e-a3ee-4a4f-94bf-6465b474ddcb}, ! Space Name
  Surface,                                ! Outside Boundary Condition
  {e8b49a58-20ee-4372-85e7-47759c9d3e6a}, ! Outside Boundary Condition Object
  NoSun,                                  ! Sun Exposure
  NoWind,                                 ! Wind Exposure
  ,                                       ! View Factor to Ground
  ,                                       ! Number of Vertices
  94, 44, 4,                              ! X,Y,Z Vertex 1 {m}
  94, 44, 0,                              ! X,Y,Z Vertex 2 {m}
  0, 44, 0,                               ! X,Y,Z Vertex 3 {m}
  0, 44, 4;                               ! X,Y,Z Vertex 4 {m}

OS:Surface,
  {3793231c-5cec-457f-b8e7-737b43e491e2}, ! Handle
  Surface 28,                             ! Name
  Wall,                                   ! Surface Type
  ,                                       ! Construction Name