
OS:Version,
  {ca3e390f-b51b-4c27-9957-c1777cefd184}, ! Handle
  0.9.3;                                  ! Version Identifier

OS:BuildingStory,
  {df20c04e-3bdf-453f-93c3-442c53f00e94}, ! Handle
  Story 1,                                ! Name
  0,                                      ! Nominal Z Coordinate {m}
  4,                                      ! Nominal Floor to Floor Height {m}
  ,                                       ! Default Construction Set Name
  ,                                       ! Default Schedule Set Name
  ;                                       ! Group Rendering Name

OS:Space,
  {c3fce788-601c-4b98-a88c-7b97b2c79ba9}, ! Handle
  Story 1 West Perimeter Space,           ! Name
  ,                                       ! Space Type Name
  ,                                       ! Default Construction Set Name
  ,                                       ! Default Schedule Set Name
  -0,                                     ! Direction of Relative North {deg}
  0,                                      ! X Origin {m}
  0,                                      ! Y Origin {m}
  0,                                      ! Z Origin {m}
  {df20c04e-3bdf-453f-93c3-442c53f00e94}, ! Building Story Name
  {e3af94f9-11b0-4cc3-9ef9-27ef03bfc916}; ! Thermal Zone Name

OS:Surface,
  {75d0378e-001a-4ee1-b8d9-b24a247c2ff6}, ! Handle
  Surface 1,                              ! Name
  Floor,                                  ! Surface Type
  ,                                       ! Construction Name
  {c3fce788-601c-4b98-a88c-7b97b2c79ba9}, ! Space Name
  Ground,                                 ! Outside Boundary Condition
  ,                                       ! Outside Boundary Condition Object
  NoSun,                                  ! Sun Exposure
  NoWind,                                 ! Wind Exposure
  ,                                       ! View Factor to Ground
  ,                                       ! Number of Vertices
  0, 0, 0,                                ! X,Y,Z Vertex 1 {m}
  0, 50, 0,                               ! X,Y,Z Vertex 2 {m}
  3, 47, 0,                               ! X,Y,Z Vertex 3 {m}
  3, 3, 0;                                ! X,Y,Z Vertex 4 {m}

OS:Surface,
  {f35b6694-98c6-4214-9ccd-e2dcbf2e3f9d}, ! Handle
  Surface 2,                              ! Name
  Wall,                                   ! Surface Type
  ,                                       ! Construction Name
  {c3fce788-601c-4b98-a88c-7b97b2c79ba9}, ! Space Name
  Outdoors,                               ! Outside Boundary Condition
  ,                                       ! Outside Boundary Condition Object
  SunExposed,                             ! Sun Exposure
  WindExposed,                            ! Wind Exposure
  ,                                       ! View Factor to Ground
  ,                                       ! Number of Vertices
  0, 50, 4,                               ! X,Y,Z Vertex 1 {m}
  0, 50, 0,                               ! X,Y,Z Vertex 2 {m}
  0, 0, 0,                                ! X,Y,Z Vertex 3 {m}
  0, 0, 4;                                ! X,Y,Z Vertex 4 {m}

OS:Surface,
  {40b73228-5f6e-4e65-9457-05e7f647343c}, ! Handle
  Surface 3,                              ! Name
  Wall,                                   ! Surface Type
  ,                                       ! Construction Name
  {c3fce788-601c-4b98-a88c-7b97b2c79ba9}, ! Space Name
  Surface,                                ! Outside Boundary Condition
  {a9a18641-b09a-45a5-9b2c-4c445c6f0508}, ! Outside Boundary Condition Object
  NoSun,                                  ! Sun Exposure
  NoWind,                                 ! Wind Exposure
  ,                                       ! View Factor to Ground
  ,                                       ! Number of Vertices
  3, 47, 4,                               ! X,Y,Z Vertex 1 {m}
  3, 47, 0,                               ! X,Y,Z Vertex 2 {m}
  0, 50, 0,                               ! X,Y,Z Vertex 3 {m}
  0, 50, 4;                               ! X,Y,Z Vertex 4 {m}

OS:Surface,
  {6cfc661b-04e5-4d88-a49e-e82aff896b95}, ! Handle
  Surface 4,                              ! Name
  Wall,                                   ! Surface Type
  ,                                       ! Construction Name
  {c3fce788-601c-4b98-a88c-7b97b2c79ba9}, ! Space Name
  Surface,                                ! Outside Boundary Condition
  {c18268d0-92d8-42b7-b42f-93f7673e2889}, ! Outside Boundary Condition Object
  NoSun,                                  ! Sun Exposure
  NoWind,                                 ! Wind Exposure
  ,                                       ! View Factor to Ground
  ,                                       ! Number of Vertices
  3, 3, 4,                                ! X,Y,Z Vertex 1 {m}
  3, 3, 0,                                ! X,Y,Z Vertex 2 {m}
  3, 47, 0,                               ! X,Y,Z Vertex 3 {m}
  3, 47, 4;                               ! X,Y,Z Vertex 4 {m}

OS:Surface,
  {ecc5920c-d39d-4d77-b32c-abd962b82e2e}, ! Handle
  Surface 5,                              ! Name
  Wall,                                   ! Surface Type
  ,                                       ! Construction Name
  {c3fce788-601c-4b98-a88c-7b97b2c79ba9}, ! Space Name
  Surface,                                ! Outside Boundary Condition
  {14697ffa-f757-403e-8c16-5c019d12d94c}, ! Outside Boundary Condition Object
  NoSun,                                  ! Sun Exposure
  NoWind,                                 ! Wind Exposure
  ,                                       ! View Factor to Ground
  ,                                       ! Number of Vertices
  0, 0, 4,                                ! X,Y,Z Vertex 1 {m}
  0, 0, 0,                                ! X,Y,Z Vertex 2 {m}
  3, 3, 0,                                ! X,Y,Z Vertex 3 {m}
  3, 3, 4;                                ! X,Y,Z Vertex 4 {m}

OS:Surface,
  {4556bc98-bfaa-4910-a24e-a248c239c7c7}, ! Handle
  Surface 6,                              ! Name
  RoofCeiling,                            ! Surface Type
  ,                                       ! Construction Name
  {c3fce788-601c-4b98-a88c-7b97b2c79ba9}, ! Space Name
  Surface,                                ! Outside Boundary Condition
  {c06f42cc-8390-4fd8-a205-66bd3f841540}, ! Outside Boundary Condition Object
  NoSun,                                  ! Sun Exposure
  NoWind,                                 ! Wind Exposure
  ,                                       ! View Factor to Ground
  ,                                       ! Number of Vertices
  3, 3, 4,                                ! X,Y,Z Vertex 1 {m}
  3, 47, 4,                               ! X,Y,Z Vertex 2 {m}
  0, 50, 4,                               ! X,Y,Z Vertex 3 {m}
  0, 0, 4;                                ! X,Y,Z Vertex 4 {m}

OS:Space,
  {c551bb8f-8fae-4e46-9bab-2c9fddc51bb6}, ! Handle
  Story 1 North Perimeter Space,          ! Name
  ,                                       ! Space Type Name
  ,                                       ! Default Construction Set Name
  ,                                       ! Default Schedule Set Name
  -0,                                     ! Direction of Relative North {deg}
  3,                                      ! X Origin {m}
  47,                                     ! Y Origin {m}
  0,                                      ! Z Origin {m}
  {df20c04e-3bdf-453f-93c3-442c53f00e94}, ! Building Story Name
  {d830d33b-c564-4a9c-80c4-0980ab0b0c10}; ! Thermal Zone Name

OS:Surface,
  {4909f2af-d4e3-4eaf-a3cb-30ab188b0660}, ! Handle
  Surface 7,                              ! Name
  Floor,                                  ! Surface Type
  ,                                       ! Construction Name
  {c551bb8f-8fae-4e46-9bab-2c9fddc51bb6}, ! Space Name
  Ground,                                 ! Outside Boundary Condition
  ,                                       ! Outside Boundary Condition Object
  NoSun,                                  ! Sun Exposure
  NoWind,                                 ! Wind Exposure
  ,                                       ! View Factor to Ground
  ,                                       ! Number of Vertices
  -3, 3, 0,                               ! X,Y,Z Vertex 1 {m}
  97, 3, 0,                               ! X,Y,Z Vertex 2 {m}
  94, 0, 0,                               ! X,Y,Z Vertex 3 {m}
  0, 0, 0;                                ! X,Y,Z Vertex 4 {m}

OS:Surface,
  {193a629c-6bae-44d3-8145-ac7e1f3d327c}, ! Handle
  Surface 8,                              ! Name
  Wall,                                   ! Surface Type
  ,                                       ! Construction Name
  {c551bb8f-8fae-4e46-9bab-2c9fddc51bb6}, ! Space Name
  Outdoors,                               ! Outside Boundary Condition
  ,                                       ! Outside Boundary Condition Object
  SunExposed,                             ! Sun Exposure
  WindExposed,                            ! Wind Exposure
  ,                                       ! View Factor to Ground
  ,                                       ! Number of Vertices
  97, 3, 4,                               ! X,Y,Z Vertex 1 {m}
  97, 3, 0,                               ! X,Y,Z Vertex 2 {m}
  -3, 3, 0,                               ! X,Y,Z Vertex 3 {m}
  -3, 3, 4;                               ! X,Y,Z Vertex 4 {m}

OS:Surface,
  {7dbc6b00-1b62-4224-9ac8-148588f3f859}, ! Handle
  Surface 9,                              ! Name
  Wall,                                   ! Surface Type
  ,                                       ! Construction Name
  {c551bb8f-8fae-4e46-9bab-2c9fddc51bb6}, ! Space Name
  Surface,                                ! Outside Boundary Condition
  {d2df391a-9c80-452a-a361-f6783258b170}, ! Outside Boundary Condition Object
  NoSun,                                  ! Sun Exposure
  NoWind,                                 ! Wind Exposure
  ,                                       ! View Factor to Ground
  ,                                       ! Number of Vertices
  94, 0, 4,                               ! X,Y,Z Vertex 1 {m}
  94, 0, 0,                               ! X,Y,Z Vertex 2 {m}
  97, 3, 0,                               ! X,Y,Z Vertex 3 {m}
  97, 3, 4;                               ! X,Y,Z Vertex 4 {m}

OS:Surface,
  {47194e77-f37d-4317-9ce9-23f36b364455}, ! Handle
  Surface 10,                             ! Name
  Wall,                                   ! Surface Type
  ,                                       ! Construction Name
  {c551bb8f-8fae-4e46-9bab-2c9fddc51bb6}, ! Space Name
  Surface,                                ! Outside Boundary Condition
  {1a29198f-f50b-4e26-a716-76f185bb43ea}, ! Outside Boundary Condition Object
  NoSun,                                  ! Sun Exposure
  NoWind,                                 ! Wind Exposure
  ,                                       ! View Factor to Ground
  ,                                       ! Number of Vertices
  0, 0, 4,                                ! X,Y,Z Vertex 1 {m}
  0, 0, 0,                                ! X,Y,Z Vertex 2 {m}
  94, 0, 0,                               ! X,Y,Z Vertex 3 {m}
  94, 0, 4;                               ! X,Y,Z Vertex 4 {m}

OS:Surface,
  {a9a18641-b09a-45a5-9b2c-4c445c6f0508}, ! Handle
  Surface 11,                             ! Name
  Wall,                                   ! Surface Type
  ,                                       ! Construction Name
  {c551bb8f-8fae-4e46-9bab-2c9fddc51bb6}, ! Space Name
  Surface,                                ! Outside Boundary Condition
  {40b73228-5f6e-4e65-9457-05e7f647343c}, ! Outside Boundary Condition Object
  NoSun,                                  ! Sun Exposure
  NoWind,                                 ! Wind Exposure
  ,                                       ! View Factor to Ground
  ,                                       ! Number of Vertices
  -3, 3, 4,                               ! X,Y,Z Vertex 1 {m}
  -3, 3, 0,                               ! X,Y,Z Vertex 2 {m}
  0, 0, 0,                                ! X,Y,Z Vertex 3 {m}
  0, 0, 4;                                ! X,Y,Z Vertex 4 {m}

OS:Surface,
  {8f3075e9-c6ac-4d08-b738-3f748efa8401}, ! Handle
  Surface 12,                             ! Name
  RoofCeiling,                            ! Surface Type
  ,                                       ! Construction Name
  {c551bb8f-8fae-4e46-9bab-2c9fddc51bb6}, ! Space Name
  Surface,                                ! Outside Boundary Condition
  {7a1816e7-a470-4647-9650-750c852e332f}, ! Outside Boundary Condition Object
  NoSun,                                  ! Sun Exposure
  NoWind,                                 ! Wind Exposure
  ,                                       ! View Factor to Ground
  ,                                       ! Number of Vertices
  0, 0, 4,                                ! X,Y,Z Vertex 1 {m}
  94, 0, 4,                               ! X,Y,Z Vertex 2 {m}
  97, 3, 4,                               ! X,Y,Z Vertex 3 {m}
  -3, 3, 4;                               ! X,Y,Z Vertex 4 {m}

OS:Space,
  {64531cf6-7196-43b5-804d-94c960183306}, ! Handle
  Story 1 East Perimeter Space,           ! Name
  ,                                       ! Space Type Name
  ,                                       ! Default Construction Set Name
  ,                                       ! Default Schedule Set Name
  -0,                                     ! Direction of Relative North {deg}
  97,                                     ! X Origin {m}
  3,                                      ! Y Origin {m}
  0,                                      ! Z Origin {m}
  {df20c04e-3bdf-453f-93c3-442c53f00e94}, ! Building Story Name
  {06004cb5-8c72-4516-b5d3-e6446aa37865}; ! Thermal Zone Name

OS:Surface,
  {477718c4-ef5b-4009-8727-711209c30f59}, ! Handle
  Surface 13,                             ! Name
  Floor,                                  ! Surface Type
  ,                                       ! Construction Name
  {64531cf6-7196-43b5-804d-94c960183306}, ! Space Name
  Ground,                                 ! Outside Boundary Condition
  ,                                       ! Outside Boundary Condition Object
  NoSun,                                  ! Sun Exposure
  NoWind,                                 ! Wind Exposure
  ,                                       ! View Factor to Ground
  ,                                       ! Number of Vertices
  3, 47, 0,                               ! X,Y,Z Vertex 1 {m}
  3, -3, 0,                               ! X,Y,Z Vertex 2 {m}
  0, 0, 0,                                ! X,Y,Z Vertex 3 {m}
  0, 44, 0;                               ! X,Y,Z Vertex 4 {m}

OS:Surface,
  {bbbf0b2e-8b61-4ed8-91ed-b14c45279438}, ! Handle
  Surface 14,                             ! Name
  Wall,                                   ! Surface Type
  ,                                       ! Construction Name
  {64531cf6-7196-43b5-804d-94c960183306}, ! Space Name
  Outdoors,                               ! Outside Boundary Condition
  ,                                       ! Outside Boundary Condition Object
  SunExposed,                             ! Sun Exposure
  WindExposed,                            ! Wind Exposure
  ,                                       ! View Factor to Ground
  ,                                       ! Number of Vertices
  3, -3, 4,                               ! X,Y,Z Vertex 1 {m}
  3, -3, 0,                               ! X,Y,Z Vertex 2 {m}
  3, 47, 0,                               ! X,Y,Z Vertex 3 {m}
  3, 47, 4;                               ! X,Y,Z Vertex 4 {m}

OS:Surface,
  {1e591a60-2236-4f30-b876-efe6d2ff8aac}, ! Handle
  Surface 15,                             ! Name
  Wall,                                   ! Surface Type
  ,                                       ! Construction Name
  {64531cf6-7196-43b5-804d-94c960183306}, ! Space Name
  Surface,                                ! Outside Boundary Condition
  {0b5ec027-f6c3-4014-b1b5-e4c22847c0dd}, ! Outside Boundary Condition Object
  NoSun,                                  ! Sun Exposure
  NoWind,                                 ! Wind Exposure
  ,                                       ! View Factor to Ground
  ,                                       ! Number of Vertices
  0, 0, 4,                                ! X,Y,Z Vertex 1 {m}
  0, 0, 0,                                ! X,Y,Z Vertex 2 {m}
  3, -3, 0,                               ! X,Y,Z Vertex 3 {m}
  3, -3, 4;                               ! X,Y,Z Vertex 4 {m}

OS:Surface,
  {9322cf53-e2a3-4418-bb7d-437dca14b58c}, ! Handle
  Surface 16,                             ! Name
  Wall,                                   ! Surface Type
  ,                                       ! Construction Name
  {64531cf6-7196-43b5-804d-94c960183306}, ! Space Name
  Surface,                                ! Outside Boundary Condition
  {71fac619-ff82-449f-a2af-436b871d8050}, ! Outside Boundary Condition Object
  NoSun,                                  ! Sun Exposure
  NoWind,                                 ! Wind Exposure
  ,                                       ! View Factor to Ground
  ,                                       ! Number of Vertices
  0, 44, 4,                               ! X,Y,Z Vertex 1 {m}
  0, 44, 0,                               ! X,Y,Z Vertex 2 {m}
  0, 0, 0,                                ! X,Y,Z Vertex 3 {m}
  0, 0, 4;                                ! X,Y,Z Vertex 4 {m}

OS:Surface,
  {d2df391a-9c80-452a-a361-f6783258b170}, ! Handle
  Surface 17,                             ! Name
  Wall,                                   ! Surface Type
  ,                                       ! Construction Name
  {64531cf6-7196-43b5-804d-94c960183306}, ! Space Name
  Surface,                                ! Outside Boundary Condition
  {7dbc6b00-1b62-4224-9ac8-148588f3f859}, ! Outside Boundary Condition Object
  NoSun,                                  ! Sun Exposure
  NoWind,                                 ! Wind Exposure
  ,                                       ! View Factor to Ground
  ,                                       ! Number of Vertices
  3, 47, 4,                               ! X,Y,Z Vertex 1 {m}
  3, 47, 0,                               ! X,Y,Z Vertex 2 {m}
  0, 44, 0,                               ! X,Y,Z Vertex 3 {m}
  0, 44, 4;                               ! X,Y,Z Vertex 4 {m}

OS:Surface,
  {5a8e920c-988b-45d0-a2b6-5f6b4ffb60f9}, ! Handle
  Surface 18,                             ! Name
  RoofCeiling,                            ! Surface Type
  ,                                       ! Construction Name
  {64531cf6-7196-43b5-804d-94c960183306}, ! Space Name
  Surface,                                ! Outside Boundary Condition
  {ecdc626b-2558-422e-ac81-dfae0ac26d81}, ! Outside Boundary Condition Object
  NoSun,                                  ! Sun Exposure
  NoWind,                                 ! Wind Exposure
  ,                                       ! View Factor to Ground
  ,                                       ! Number of Vertices
  0, 44, 4,                               ! X,Y,Z Vertex 1 {m}
  0, 0, 4,                                ! X,Y,Z Vertex 2 {m}
  3, -3, 4,                               ! X,Y,Z Vertex 3 {m}
  3, 47, 4;                               ! X,Y,Z Vertex 4 {m}

OS:Space,
  {acd981ee-84d7-4f55-9295-5e1beeb323c9}, ! Handle
  Story 1 South Perimeter Space,          ! Name
  ,                                       ! Space Type Name
  ,                                       ! Default Construction Set Name
  ,                                       ! Default Schedule Set Name
  -0,                                     ! Direction of Relative North {deg}
  0,                                      ! X Origin {m}
  0,                                      ! Y Origin {m}
  0,                                      ! Z Origin {m}
  {df20c04e-3bdf-453f-93c3-442c53f00e94}, ! Building Story Name
  {4bd27034-c35f-4f61-82cf-66fff48d4bb8}; ! Thermal Zone Name

OS:Surface,
  {5f4f2a72-da12-4e31-98c2-77a67b506e67}, ! Handle
  Surface 19,                             ! Name
  Floor,                                  ! Surface Type
  ,                                       ! Construction Name
  {acd981ee-84d7-4f55-9295-5e1beeb323c9}, ! Space Name
  Ground,                                 ! Outside Boundary Condition
  ,                                       ! Outside Boundary Condition Object
  NoSun,                                  ! Sun Exposure
  NoWind,                                 ! Wind Exposure
  ,                                       ! View Factor to Ground
  ,                                       ! Number of Vertices
  100, 0, 0,                              ! X,Y,Z Vertex 1 {m}
  0, 0, 0,                                ! X,Y,Z Vertex 2 {m}
  3, 3, 0,                                ! X,Y,Z Vertex 3 {m}
  97, 3, 0;                               ! X,Y,Z Vertex 4 {m}

OS:Surface,
  {5b6a34e5-4cd5-43df-8d1f-3fd3f56d5a3c}, ! Handle
  Surface 20,                             ! Name
  Wall,                                   ! Surface Type
  ,                                       ! Construction Name
  {acd981ee-84d7-4f55-9295-5e1beeb323c9}, ! Space Name
  Outdoors,                               ! Outside Boundary Condition
  ,                                       ! Outside Boundary Condition Object
  SunExposed,                             ! Sun Exposure
  WindExposed,                            ! Wind Exposure
  ,                                       ! View Factor to Ground
  ,                                       ! Number of Vertices
  0, 0, 4,                                ! X,Y,Z Vertex 1 {m}
  0, 0, 0,                                ! X,Y,Z Vertex 2 {m}
  100, 0, 0,                              ! X,Y,Z Vertex 3 {m}
  100, 0, 4;                              ! X,Y,Z Vertex 4 {m}

OS:Surface,
  {14697ffa-f757-403e-8c16-5c019d12d94c}, ! Handle
  Surface 21,                             ! Name
  Wall,                                   ! Surface Type
  ,                                       ! Construction Name
  {acd981ee-84d7-4f55-9295-5e1beeb323c9}, ! Space Name
  Surface,                                ! Outside Boundary Condition
  {ecc5920c-d39d-4d77-b32c-abd962b82e2e}, ! Outside Boundary Condition Object
  NoSun,                                  ! Sun Exposure
  NoWind,                                 ! Wind Exposure
  ,                                       ! View Factor to Ground
  ,                                       ! Number of Vertices
  3, 3, 4,                                ! X,Y,Z Vertex 1 {m}
  3, 3, 0,                                ! X,Y,Z Vertex 2 {m}
  0, 0, 0,                                ! X,Y,Z Vertex 3 {m}
  0, 0, 4;                                ! X,Y,Z Vertex 4 {m}

OS:Surface,
  {bc115a84-0a08-440a-8229-75b786bfcd81}, ! Handle
  Surface 22,                             ! Name
  Wall,                                   ! Surface Type
  ,                                       ! Construction Name
  {acd981ee-84d7-4f55-9295-5e1beeb323c9}, ! Space Name
  Surface,                                ! Outside Boundary Condition
  {5cb66666-4e3d-463c-88ad-0741e9533964}, ! Outside Boundary Condition Object
  NoSun,                                  ! Sun Exposure
  NoWind,                                 ! Wind Exposure
  ,                                       ! View Factor to Ground
  ,                                       ! Number of Vertices
  97, 3, 4,                               ! X,Y,Z Vertex 1 {m}
  97, 3, 0,                               ! X,Y,Z Vertex 2 {m}
  3, 3, 0,                                ! X,Y,Z Vertex 3 {m}
  3, 3, 4;                                ! X,Y,Z Vertex 4 {m}

OS:Surface,
  {0b5ec027-f6c3-4014-b1b5-e4c22847c0dd}, ! Handle
  Surface 23,                             ! Name
  Wall,                                   ! Surface Type
  ,                                       ! Construction Name
  {acd981ee-84d7-4f55-9295-5e1beeb323c9}, ! Space Name
  Surface,                                ! Outside Boundary Condition
  {1e591a60-2236-4f30-b876-efe6d2ff8aac}, ! Outside Boundary Condition Object
  NoSun,                                  ! Sun Exposure
  NoWind,                                 ! Wind Exposure
  ,                                       ! View Factor to Ground
  ,                                       ! Number of Vertices
  100, 0, 4,                              ! X,Y,Z Vertex 1 {m}
  100, 0, 0,                              ! X,Y,Z Vertex 2 {m}
  97, 3, 0,                               ! X,Y,Z Vertex 3 {m}
  97, 3, 4;                               ! X,Y,Z Vertex 4 {m}

OS:Surface,
  {ab48b6a4-689b-4bb4-8e80-ad78e5f2fee7}, ! Handle
  Surface 24,                             ! Name
  RoofCeiling,                            ! Surface Type
  ,                                       ! Construction Name
  {acd981ee-84d7-4f55-9295-5e1beeb323c9}, ! Space Name
  Surface,                                ! Outside Boundary Condition
  {57e4e61a-d160-4120-9ccc-d0a1ada7d5ae}, ! Outside Boundary Condition Object
  NoSun,                                  ! Sun Exposure
  NoWind,                                 ! Wind Exposure
  ,                                       ! View Factor to Ground
  ,                                       ! Number of Vertices
  97, 3, 4,                               ! X,Y,Z Vertex 1 {m}
  3, 3, 4,                                ! X,Y,Z Vertex 2 {m}
  0, 0, 4,                                ! X,Y,Z Vertex 3 {m}
  100, 0, 4;                              ! X,Y,Z Vertex 4 {m}

OS:Space,
  {b2330832-1da0-4439-b31a-0ca99970e379}, ! Handle
  Story 1 Core Space,                     ! Name
  ,                                       ! Space Type Name
  ,                                       ! Default Construction Set Name
  ,                                       ! Default Schedule Set Name
  -0,                                     ! Direction of Relative North {deg}
  3,                                      ! X Origin {m}
  3,                                      ! Y Origin {m}
  0,                                      ! Z Origin {m}
  {df20c04e-3bdf-453f-93c3-442c53f00e94}, ! Building Story Name
  {78afb953-c04a-4a7e-9a74-7dc0330d65d8}; ! Thermal Zone Name

OS:Surface,
  {5fe54fc8-d1ad-4251-987c-408cb7788ea5}, ! Handle
  Surface 25,                             ! Name
  Floor,                                  ! Surface Type
  ,                                       ! Construction Name
  {b2330832-1da0-4439-b31a-0ca99970e379}, ! Space Name
  Ground,                                 ! Outside Boundary Condition
  ,                                       ! Outside Boundary Condition Object
  NoSun,                                  ! Sun Exposure
  NoWind,                                 ! Wind Exposure
  ,                                       ! View Factor to Ground
  ,                                       ! Number of Vertices
  0, 0, 0,                                ! X,Y,Z Vertex 1 {m}
  0, 44, 0,                               ! X,Y,Z Vertex 2 {m}
  94, 44, 0,                              ! X,Y,Z Vertex 3 {m}
  94, 0, 0;                               ! X,Y,Z Vertex 4 {m}

OS:Surface,
  {c18268d0-92d8-42b7-b42f-93f7673e2889}, ! Handle
  Surface 26,                             ! Name
  Wall,                                   ! Surface Type
  ,                                       ! Construction Name
  {b2330832-1da0-4439-b31a-0ca99970e379}, ! Space Name
  Surface,                                ! Outside Boundary Condition
  {6cfc661b-04e5-4d88-a49e-e82aff896b95}, ! Outside Boundary Condition Object
  NoSun,                                  ! Sun Exposure
  NoWind,                                 ! Wind Exposure
  ,                                       ! View Factor to Ground
  ,                                       ! Number of Vertices
  0, 44, 4,                               ! X,Y,Z Vertex 1 {m}
  0, 44, 0,                               ! X,Y,Z Vertex 2 {m}
  0, 0, 0,                                ! X,Y,Z Vertex 3 {m}
  0, 0, 4;                                ! X,Y,Z Vertex 4 {m}

OS:Surface,
  {1a29198f-f50b-4e26-a716-76f185bb43ea}, ! Handle
  Surface 27,                             ! Name
  Wall,                                   ! Surface Type
  ,                                       ! Construction Name
  {b2330832-1da0-4439-b31a-0ca99970e379}, ! Space Name
  Surface,                                ! Outside Boundary Condition
  {47194e77-f37d-4317-9ce9-23f36b364455}, ! Outside Boundary Condition Object
  NoSun,                                  ! Sun Exposure
  NoWind,                                 ! Wind Exposure
  ,                                       ! View Factor to Ground
  ,                                       ! Number of Vertices
  94, 44, 4,                              ! X,Y,Z Vertex 1 {m}
  94, 44, 0,                              ! X,Y,Z Vertex 2 {m}
  0, 44, 0,                               ! X,Y,Z Vertex 3 {m}
  0, 44, 4;                               ! X,Y,Z Vertex 4 {m}

OS:Surface,
  {71fac619-ff82-449f-a2af-436b871d8050}, ! Handle
  Surface 28,                             ! Name
  Wall,                                   ! Surface Type
  ,                                       ! Construction Name