
OS:Version,
  {253da668-4320-4ec9-bbba-e5ffaca25fce}, ! Handle
  0.9.3;                                  ! Version Identifier

OS:BuildingStory,
  {14bae158-99db-4094-9963-24c5214957aa}, ! Handle
  Story 1,                                ! Name
  0,                                      ! Nominal Z Coordinate {m}
  4,                                      ! Nominal Floor to Floor Height {m}
  ,                                       ! Default Construction Set Name
  ,                                       ! Default Schedule Set Name
  ;                                       ! Group Rendering Name

OS:Space,
  {14e762d6-eff8-47f3-b7a5-0fc77b32215f}, ! Handle
  Story 1 West Perimeter Space,           ! Name
  ,                                       ! Space Type Name
  ,                                       ! Default Construction Set Name
  ,                                       ! Default Schedule Set Name
  -0,                                     ! Direction of Relative North {deg}
  0,                                      ! X Origin {m}
  0,                                      ! Y Origin {m}
  0,                                      ! Z Origin {m}
  {14bae158-99db-4094-9963-24c5214957aa}, ! Building Story Name
  {8bc34b19-d05a-4030-9397-d70033cda8fe}; ! Thermal Zone Name

OS:Surface,
  {aff4ee27-1072-4d22-a6a5-44ef62d4c0da}, ! Handle
  Surface 1,                              ! Name
  Floor,                                  ! Surface Type
  ,                                       ! Construction Name
  {14e762d6-eff8-47f3-b7a5-0fc77b32215f}, ! Space Name
  Ground,                                 ! Outside Boundary Condition
  ,                                       ! Outside Boundary Condition Object
  NoSun,                                  ! Sun Exposure
  NoWind,                                 ! Wind Exposure
  ,                                       ! View Factor to Ground
  ,                                       ! Number of Vertices
  0, 0, 0,                                ! X,Y,Z Vertex 1 {m}
  0, 50, 0,                               ! X,Y,Z Vertex 2 {m}
  3, 47, 0,                               ! X,Y,Z Vertex 3 {m}
  3, 3, 0;                                ! X,Y,Z Vertex 4 {m}

OS:Surface,
  {8f954181-86c5-4bed-8139-4eceba2fa435}, ! Handle
  Surface 2,                              ! Name
  Wall,                                   ! Surface Type
  ,                                       ! Construction Name
  {14e762d6-eff8-47f3-b7a5-0fc77b32215f}, ! Space Name
  Outdoors,                               ! Outside Boundary Condition
  ,                                       ! Outside Boundary Condition Object
  SunExposed,                             ! Sun Exposure
  WindExposed,                            ! Wind Exposure
  ,                                       ! View Factor to Ground
  ,                                       ! Number of Vertices
  0, 50, 4,                               ! X,Y,Z Vertex 1 {m}
  0, 50, 0,                               ! X,Y,Z Vertex 2 {m}
  0, 0, 0,                                ! X,Y,Z Vertex 3 {m}
  0, 0, 4;                                ! X,Y,Z Vertex 4 {m}

OS:Surface,
  {089c7b12-33ed-4512-9853-4c3b0107e1aa}, ! Handle
  Surface 3,                              ! Name
  Wall,                                   ! Surface Type
  ,                                       ! Construction Name
  {14e762d6-eff8-47f3-b7a5-0fc77b32215f}, ! Space Name
  Surface,                                ! Outside Boundary Condition
  {0ae8f002-df33-44a1-9558-bcfa7bba82b2}, ! Outside Boundary Condition Object
  NoSun,                                  ! Sun Exposure
  NoWind,                                 ! Wind Exposure
  ,                                       ! View Factor to Ground
  ,                                       ! Number of Vertices
  3, 47, 4,                               ! X,Y,Z Vertex 1 {m}
  3, 47, 0,                               ! X,Y,Z Vertex 2 {m}
  0, 50, 0,                               ! X,Y,Z Vertex 3 {m}
  0, 50, 4;                               ! X,Y,Z Vertex 4 {m}

OS:Surface,
  {628b8b54-498e-4615-802f-a0c6aeff5c4e}, ! Handle
  Surface 4,                              ! Name
  Wall,                                   ! Surface Type
  ,                                       ! Construction Name
  {14e762d6-eff8-47f3-b7a5-0fc77b32215f}, ! Space Name
  Surface,                                ! Outside Boundary Condition
  {26709335-2fd6-4562-95a5-9b0e15472e21}, ! Outside Boundary Condition Object
  NoSun,                                  ! Sun Exposure
  NoWind,                                 ! Wind Exposure
  ,                                       ! View Factor to Ground
  ,                                       ! Number of Vertices
  3, 3, 4,                                ! X,Y,Z Vertex 1 {m}
  3, 3, 0,                                ! X,Y,Z Vertex 2 {m}
  3, 47, 0,                               ! X,Y,Z Vertex 3 {m}
  3, 47, 4;                               ! X,Y,Z Vertex 4 {m}

OS:Surface,
  {7c448b49-5e67-4c14-8322-43e613319a26}, ! Handle
  Surface 5,                              ! Name
  Wall,                                   ! Surface Type
  ,                                       ! Construction Name
  {14e762d6-eff8-47f3-b7a5-0fc77b32215f}, ! Space Name
  Surface,                                ! Outside Boundary Condition
  {5198ac37-5d01-49e2-a4a8-2f0b3a69d33c}, ! Outside Boundary Condition Object
  NoSun,                                  ! Sun Exposure
  NoWind,                                 ! Wind Exposure
  ,                                       ! View Factor to Ground
  ,                                       ! Number of Vertices
  0, 0, 4,                                ! X,Y,Z Vertex 1 {m}
  0, 0, 0,                                ! X,Y,Z Vertex 2 {m}
  3, 3, 0,                                ! X,Y,Z Vertex 3 {m}
  3, 3, 4;                                ! X,Y,Z Vertex 4 {m}

OS:Surface,
  {d5c2d7c4-efe0-40bf-a237-9ea587761351}, ! Handle
  Surface 6,                              ! Name
  RoofCeiling,                            ! Surface Type
  ,                                       ! Construction Name
  {14e762d6-eff8-47f3-b7a5-0fc77b32215f}, ! Space Name
  Surface,                                ! Outside Boundary Condition
  {2650a687-9c0d-4cfb-a2fc-7154f130b550}, ! Outside Boundary Condition Object
  NoSun,                                  ! Sun Exposure
  NoWind,                                 ! Wind Exposure
  ,                                       ! View Factor to Ground
  ,                                       ! Number of Vertices
  3, 3, 4,                                ! X,Y,Z Vertex 1 {m}
  3, 47, 4,                               ! X,Y,Z Vertex 2 {m}
  0, 50, 4,                               ! X,Y,Z Vertex 3 {m}
  0, 0, 4;                                ! X,Y,Z Vertex 4 {m}

OS:Space,
  {363fe3c3-ddb9-44d3-86e7-4ad4bb64fff5}, ! Handle
  Story 1 North Perimeter Space,          ! Name
  ,                                       ! Space Type Name
  ,                                       ! Default Construction Set Name
  ,                                       ! Default Schedule Set Name
  -0,                                     ! Direction of Relative North {deg}
  3,                                      ! X Origin {m}
  47,                                     ! Y Origin {m}
  0,                                      ! Z Origin {m}
  {14bae158-99db-4094-9963-24c5214957aa}, ! Building Story Name
  {ff0faf20-9e83-41fa-9057-96b6af15d5f0}; ! Thermal Zone Name

OS:Surface,
  {a2adfe17-f970-44f1-8ec9-b6655c37b927}, ! Handle
  Surface 7,                              ! Name
  Floor,                                  ! Surface Type
  ,                                       ! Construction Name
  {363fe3c3-ddb9-44d3-86e7-4ad4bb64fff5}, ! Space Name
  Ground,                                 ! Outside Boundary Condition
  ,                                       ! Outside Boundary Condition Object
  NoSun,                                  ! Sun Exposure
  NoWind,                                 ! Wind Exposure
  ,                                       ! View Factor to Ground
  ,                                       ! Number of Vertices
  -3, 3, 0,                               ! X,Y,Z Vertex 1 {m}
  97, 3, 0,                               ! X,Y,Z Vertex 2 {m}
  94, 0, 0,                               ! X,Y,Z Vertex 3 {m}
  0, 0, 0;                                ! X,Y,Z Vertex 4 {m}

OS:Surface,
  {f49aa308-4534-4b25-b3d4-18ecbbd66f0a}, ! Handle
  Surface 8,                              ! Name
  Wall,                                   ! Surface Type
  ,                                       ! Construction Name
  {363fe3c3-ddb9-44d3-86e7-4ad4bb64fff5}, ! Space Name
  Outdoors,                               ! Outside Boundary Condition
  ,                                       ! Outside Boundary Condition Object
  SunExposed,                             ! Sun Exposure
  WindExposed,                            ! Wind Exposure
  ,                                       ! View Factor to Ground
  ,                                       ! Number of Vertices
  97, 3, 4,                               ! X,Y,Z Vertex 1 {m}
  97, 3, 0,                               ! X,Y,Z Vertex 2 {m}
  -3, 3, 0,                               ! X,Y,Z Vertex 3 {m}
  -3, 3, 4;                               ! X,Y,Z Vertex 4 {m}

OS:Surface,
  {cffb9151-34b3-42ac-b13e-dcc278c86670}, ! Handle
  Surface 9,                              ! Name
  Wall,                                   ! Surface Type
  ,                                       ! Construction Name
  {363fe3c3-ddb9-44d3-86e7-4ad4bb64fff5}, ! Space Name
  Surface,                                ! Outside Boundary Condition
  {ce4c48e2-785a-43f5-8a79-b38a82b11995}, ! Outside Boundary Condition Object
  NoSun,                                  ! Sun Exposure
  NoWind,                                 ! Wind Exposure
  ,                                       ! View Factor to Ground
  ,                                       ! Number of Vertices
  94, 0, 4,                               ! X,Y,Z Vertex 1 {m}
  94, 0, 0,                               ! X,Y,Z Vertex 2 {m}
  97, 3, 0,                               ! X,Y,Z Vertex 3 {m}
  97, 3, 4;                               ! X,Y,Z Vertex 4 {m}

OS:Surface,
  {e9cc3733-044d-4286-b500-923a50d809ce}, ! Handle
  Surface 10,                             ! Name
  Wall,                                   ! Surface Type
  ,                                       ! Construction Name
  {363fe3c3-ddb9-44d3-86e7-4ad4bb64fff5}, ! Space Name
  Surface,                                ! Outside Boundary Condition
  {b7669357-f33a-46d8-bc83-2c89181f344e}, ! Outside Boundary Condition Object
  NoSun,                                  ! Sun Exposure
  NoWind,                                 ! Wind Exposure
  ,                                       ! View Factor to Ground
  ,                                       ! Number of Vertices
  0, 0, 4,                                ! X,Y,Z Vertex 1 {m}
  0, 0, 0,                                ! X,Y,Z Vertex 2 {m}
  94, 0, 0,                               ! X,Y,Z Vertex 3 {m}
  94, 0, 4;                               ! X,Y,Z Vertex 4 {m}

OS:Surface,
  {0ae8f002-df33-44a1-9558-bcfa7bba82b2}, ! Handle
  Surface 11,                             ! Name
  Wall,                                   ! Surface Type
  ,                                       ! Construction Name
  {363fe3c3-ddb9-44d3-86e7-4ad4bb64fff5}, ! Space Name
  Surface,                                ! Outside Boundary Condition
  {089c7b12-33ed-4512-9853-4c3b0107e1aa}, ! Outside Boundary Condition Object
  NoSun,                                  ! Sun Exposure
  NoWind,                                 ! Wind Exposure
  ,                                       ! View Factor to Ground
  ,                                       ! Number of Vertices
  -3, 3, 4,                               ! X,Y,Z Vertex 1 {m}
  -3, 3, 0,                               ! X,Y,Z Vertex 2 {m}
  0, 0, 0,                                ! X,Y,Z Vertex 3 {m}
  0, 0, 4;                                ! X,Y,Z Vertex 4 {m}

OS:Surface,
  {aa5f2db8-8fa2-4ae2-a127-07ece03b953a}, ! Handle
  Surface 12,                             ! Name
  RoofCeiling,                            ! Surface Type
  ,                                       ! Construction Name
  {363fe3c3-ddb9-44d3-86e7-4ad4bb64fff5}, ! Space Name
  Surface,                                ! Outside Boundary Condition
  {d1214350-7527-4549-b70e-ff3c27757d6d}, ! Outside Boundary Condition Object
  NoSun,                                  ! Sun Exposure
  NoWind,                                 ! Wind Exposure
  ,                                       ! View Factor to Ground
  ,                                       ! Number of Vertices
  0, 0, 4,                                ! X,Y,Z Vertex 1 {m}
  94, 0, 4,                               ! X,Y,Z Vertex 2 {m}
  97, 3, 4,                               ! X,Y,Z Vertex 3 {m}
  -3, 3, 4;                               ! X,Y,Z Vertex 4 {m}

OS:Space,
  {27793cb1-d588-41b8-b1e2-f5aaf8ffe01a}, ! Handle
  Story 1 East Perimeter Space,           ! Name
  ,                                       ! Space Type Name
  ,                                       ! Default Construction Set Name
  ,                                       ! Default Schedule Set Name
  -0,                                     ! Direction of Relative North {deg}
  97,                                     ! X Origin {m}
  3,                                      ! Y Origin {m}
  0,                                      ! Z Origin {m}
  {14bae158-99db-4094-9963-24c5214957aa}, ! Building Story Name
  {e3f60732-2baa-4982-917e-fb84b3ba972e}; ! Thermal Zone Name

OS:Surface,
  {d15f99d6-48ad-4f07-a8c0-bda894c123b2}, ! Handle
  Surface 13,                             ! Name
  Floor,                                  ! Surface Type
  ,                                       ! Construction Name
  {27793cb1-d588-41b8-b1e2-f5aaf8ffe01a}, ! Space Name
  Ground,                                 ! Outside Boundary Condition
  ,                                       ! Outside Boundary Condition Object
  NoSun,                                  ! Sun Exposure
  NoWind,                                 ! Wind Exposure
  ,                                       ! View Factor to Ground
  ,                                       ! Number of Vertices
  3, 47, 0,                               ! X,Y,Z Vertex 1 {m}
  3, -3, 0,                               ! X,Y,Z Vertex 2 {m}
  0, 0, 0,                                ! X,Y,Z Vertex 3 {m}
  0, 44, 0;                               ! X,Y,Z Vertex 4 {m}

OS:Surface,
  {4b9c92b1-c432-4082-b262-ed0b0267b366}, ! Handle
  Surface 14,                             ! Name
  Wall,                                   ! Surface Type
  ,                                       ! Construction Name
  {27793cb1-d588-41b8-b1e2-f5aaf8ffe01a}, ! Space Name
  Outdoors,                               ! Outside Boundary Condition
  ,                                       ! Outside Boundary Condition Object
  SunExposed,                             ! Sun Exposure
  WindExposed,                            ! Wind Exposure
  ,                                       ! View Factor to Ground
  ,                                       ! Number of Vertices
  3, -3, 4,                               ! X,Y,Z Vertex 1 {m}
  3, -3, 0,                               ! X,Y,Z Vertex 2 {m}
  3, 47, 0,                               ! X,Y,Z Vertex 3 {m}
  3, 47, 4;                               ! X,Y,Z Vertex 4 {m}

OS:Surface,
  {45cbe4cf-8287-485a-a117-0ecefe21ca28}, ! Handle
  Surface 15,                             ! Name
  Wall,                                   ! Surface Type
  ,                                       ! Construction Name
  {27793cb1-d588-41b8-b1e2-f5aaf8ffe01a}, ! Space Name
  Surface,                                ! Outside Boundary Condition
  {ac54327b-7e7a-403d-9850-026992f5ab79}, ! Outside Boundary Condition Object
  NoSun,                                  ! Sun Exposure
  NoWind,                                 ! Wind Exposure
  ,                                       ! View Factor to Ground
  ,                                       ! Number of Vertices
  0, 0, 4,                                ! X,Y,Z Vertex 1 {m}
  0, 0, 0,                                ! X,Y,Z Vertex 2 {m}
  3, -3, 0,                               ! X,Y,Z Vertex 3 {m}
  3, -3, 4;                               ! X,Y,Z Vertex 4 {m}

OS:Surface,
  {2adc7ba2-7c22-497d-b42c-52d2d5fa6567}, ! Handle
  Surface 16,                             ! Name
  Wall,                                   ! Surface Type
  ,                                       ! Construction Name
  {27793cb1-d588-41b8-b1e2-f5aaf8ffe01a}, ! Space Name
  Surface,                                ! Outside Boundary Condition
  {045ab629-cbcb-4ef1-992d-9db0aa263344}, ! Outside Boundary Condition Object
  NoSun,                                  ! Sun Exposure
  NoWind,                                 ! Wind Exposure
  ,                                       ! View Factor to Ground
  ,                                       ! Number of Vertices
  0, 44, 4,                               ! X,Y,Z Vertex 1 {m}
  0, 44, 0,                               ! X,Y,Z Vertex 2 {m}
  0, 0, 0,                                ! X,Y,Z Vertex 3 {m}
  0, 0, 4;                                ! X,Y,Z Vertex 4 {m}

OS:Surface,
  {ce4c48e2-785a-43f5-8a79-b38a82b11995}, ! Handle
  Surface 17,                             ! Name
  Wall,                                   ! Surface Type
  ,                                       ! Construction Name
  {27793cb1-d588-41b8-b1e2-f5aaf8ffe01a}, ! Space Name
  Surface,                                ! Outside Boundary Condition
  {cffb9151-34b3-42ac-b13e-dcc278c86670}, ! Outside Boundary Condition Object
  NoSun,                                  ! Sun Exposure
  NoWind,                                 ! Wind Exposure
  ,                                       ! View Factor to Ground
  ,                                       ! Number of Vertices
  3, 47, 4,                               ! X,Y,Z Vertex 1 {m}
  3, 47, 0,                               ! X,Y,Z Vertex 2 {m}
  0, 44, 0,                               ! X,Y,Z Vertex 3 {m}
  0, 44, 4;                               ! X,Y,Z Vertex 4 {m}

OS:Surface,
  {ada8167c-85a7-4daa-80c7-7f4bf74133db}, ! Handle
  Surface 18,                             ! Name
  RoofCeiling,                            ! Surface Type
  ,                                       ! Construction Name
  {27793cb1-d588-41b8-b1e2-f5aaf8ffe01a}, ! Space Name
  Surface,                                ! Outside Boundary Condition
  {2fbb86b9-d7b5-48c9-8bfc-914e887115cd}, ! Outside Boundary Condition Object
  NoSun,                                  ! Sun Exposure
  NoWind,                                 ! Wind Exposure
  ,                                       ! View Factor to Ground
  ,                                       ! Number of Vertices
  0, 44, 4,                               ! X,Y,Z Vertex 1 {m}
  0, 0, 4,                                ! X,Y,Z Vertex 2 {m}
  3, -3, 4,                               ! X,Y,Z Vertex 3 {m}
  3, 47, 4;                               ! X,Y,Z Vertex 4 {m}

OS:Space,
  {72a5e25a-d6bb-4bac-8d14-7217d2d0b044}, ! Handle
  Story 1 South Perimeter Space,          ! Name
  ,                                       ! Space Type Name
  ,                                       ! Default Construction Set Name
  ,                                       ! Default Schedule Set Name
  -0,                                     ! Direction of Relative North {deg}
  0,                                      ! X Origin {m}
  0,                                      ! Y Origin {m}
  0,                                      ! Z Origin {m}
  {14bae158-99db-4094-9963-24c5214957aa}, ! Building Story Name
  {da596543-4d3a-4590-b0fd-1d16f4c558d6}; ! Thermal Zone Name

OS:Surface,
  {a4862ddb-3b86-4bfa-9b0d-f97230298bc2}, ! Handle
  Surface 19,                             ! Name
  Floor,                                  ! Surface Type
  ,                                       ! Construction Name
  {72a5e25a-d6bb-4bac-8d14-7217d2d0b044}, ! Space Name
  Ground,                                 ! Outside Boundary Condition
  ,                                       ! Outside Boundary Condition Object
  NoSun,                                  ! Sun Exposure
  NoWind,                                 ! Wind Exposure
  ,                                       ! View Factor to Ground
  ,                                       ! Number of Vertices
  100, 0, 0,                              ! X,Y,Z Vertex 1 {m}
  0, 0, 0,                                ! X,Y,Z Vertex 2 {m}
  3, 3, 0,                                ! X,Y,Z Vertex 3 {m}
  97, 3, 0;                               ! X,Y,Z Vertex 4 {m}

OS:Surface,
  {ca0868db-ed69-4c2c-8bfc-d4467590f699}, ! Handle
  Surface 20,                             ! Name
  Wall,                                   ! Surface Type
  ,                                       ! Construction Name
  {72a5e25a-d6bb-4bac-8d14-7217d2d0b044}, ! Space Name
  Outdoors,                               ! Outside Boundary Condition
  ,                                       ! Outside Boundary Condition Object
  SunExposed,                             ! Sun Exposure
  WindExposed,                            ! Wind Exposure
  ,                                       ! View Factor to Ground
  ,                                       ! Number of Vertices
  0, 0, 4,                                ! X,Y,Z Vertex 1 {m}
  0, 0, 0,                                ! X,Y,Z Vertex 2 {m}
  100, 0, 0,                              ! X,Y,Z Vertex 3 {m}
  100, 0, 4;                              ! X,Y,Z Vertex 4 {m}

OS:Surface,
  {5198ac37-5d01-49e2-a4a8-2f0b3a69d33c}, ! Handle
  Surface 21,                             ! Name
  Wall,                                   ! Surface Type
  ,                                       ! Construction Name
  {72a5e25a-d6bb-4bac-8d14-7217d2d0b044}, ! Space Name
  Surface,                                ! Outside Boundary Condition
  {7c448b49-5e67-4c14-8322-43e613319a26}, ! Outside Boundary Condition Object
  NoSun,                                  ! Sun Exposure
  NoWind,                                 ! Wind Exposure
  ,                                       ! View Factor to Ground
  ,                                       ! Number of Vertices
  3, 3, 4,                                ! X,Y,Z Vertex 1 {m}
  3, 3, 0,                                ! X,Y,Z Vertex 2 {m}
  0, 0, 0,                                ! X,Y,Z Vertex 3 {m}
  0, 0, 4;                                ! X,Y,Z Vertex 4 {m}

OS:Surface,
  {e7df4ca4-dae6-47e6-b4d2-69750c94f0db}, ! Handle
  Surface 22,                             ! Name
  Wall,                                   ! Surface Type
  ,                                       ! Construction Name
  {72a5e25a-d6bb-4bac-8d14-7217d2d0b044}, ! Space Name
  Surface,                                ! Outside Boundary Condition
  {1bbb5e36-e5b4-4309-bd31-2bbd62d8fd86}, ! Outside Boundary Condition Object
  NoSun,                                  ! Sun Exposure
  NoWind,                                 ! Wind Exposure
  ,                                       ! View Factor to Ground
  ,                                       ! Number of Vertices
  97, 3, 4,                               ! X,Y,Z Vertex 1 {m}
  97, 3, 0,                               ! X,Y,Z Vertex 2 {m}
  3, 3, 0,                                ! X,Y,Z Vertex 3 {m}
  3, 3, 4;                                ! X,Y,Z Vertex 4 {m}

OS:Surface,
  {ac54327b-7e7a-403d-9850-026992f5ab79}, ! Handle
  Surface 23,                             ! Name
  Wall,                                   ! Surface Type
  ,                                       ! Construction Name
  {72a5e25a-d6bb-4bac-8d14-7217d2d0b044}, ! Space Name
  Surface,                                ! Outside Boundary Condition
  {45cbe4cf-8287-485a-a117-0ecefe21ca28}, ! Outside Boundary Condition Object
  NoSun,                                  ! Sun Exposure
  NoWind,                                 ! Wind Exposure
  ,                                       ! View Factor to Ground
  ,                                       ! Number of Vertices
  100, 0, 4,                              ! X,Y,Z Vertex 1 {m}
  100, 0, 0,                              ! X,Y,Z Vertex 2 {m}
  97, 3, 0,                               ! X,Y,Z Vertex 3 {m}
  97, 3, 4;                               ! X,Y,Z Vertex 4 {m}

OS:Surface,
  {3e6b5bc6-2864-4adf-b92e-aa47cc9a70cf}, ! Handle
  Surface 24,                             ! Name
  RoofCeiling,                            ! Surface Type
  ,                                       ! Construction Name
  {72a5e25a-d6bb-4bac-8d14-7217d2d0b044}, ! Space Name
  Surface,                                ! Outside Boundary Condition
  {885b7146-b23c-4359-aa39-9a5b5a578876}, ! Outside Boundary Condition Object
  NoSun,                                  ! Sun Exposure
  NoWind,                                 ! Wind Exposure
  ,                                       ! View Factor to Ground
  ,                                       ! Number of Vertices
  97, 3, 4,                               ! X,Y,Z Vertex 1 {m}
  3, 3, 4,                                ! X,Y,Z Vertex 2 {m}
  0, 0, 4,                                ! X,Y,Z Vertex 3 {m}
  100, 0, 4;                              ! X,Y,Z Vertex 4 {m}

OS:Space,
  {ecec80ee-7811-4791-b10e-7fccd90db202}, ! Handle
  Story 1 Core Space,                     ! Name
  ,                                       ! Space Type Name
  ,                                       ! Default Construction Set Name
  ,                                       ! Default Schedule Set Name
  -0,                                     ! Direction of Relative North {deg}
  3,                                      ! X Origin {m}
  3,                                      ! Y Origin {m}
  0,                                      ! Z Origin {m}
  {14bae158-99db-4094-9963-24c5214957aa}, ! Building Story Name
  {e777ea95-a509-4eb1-b4e9-b1249697e66a}; ! Thermal Zone Name

OS:Surface,
  {fcfde194-d1b6-4e35-97ae-f069e76ce053}, ! Handle
  Surface 25,                             ! Name
  Floor,                                  ! Surface Type
  ,                                       ! Construction Name
  {ecec80ee-7811-4791-b10e-7fccd90db202}, ! Space Name
  Ground,                                 ! Outside Boundary Condition
  ,                                       ! Outside Boundary Condition Object
  NoSun,                                  ! Sun Exposure
  NoWind,                                 ! Wind Exposure
  ,                                       ! View Factor to Ground
  ,                                       ! Number of Vertices
  0, 0, 0,                                ! X,Y,Z Vertex 1 {m}
  0, 44, 0,                               ! X,Y,Z Vertex 2 {m}
  94, 44, 0,                              ! X,Y,Z Vertex 3 {m}
  94, 0, 0;                               ! X,Y,Z Vertex 4 {m}

OS:Surface,
  {26709335-2fd6-4562-95a5-9b0e15472e21}, ! Handle
  Surface 26,                             ! Name
  Wall,                                   ! Surface Type
  ,                                       ! Construction Name
  {ecec80ee-7811-4791-b10e-7fccd90db202}, ! Space Name
  Surface,                                ! Outside Boundary Condition
  {628b8b54-498e-4615-802f-a0c6aeff5c4e}, ! Outside Boundary Condition Object
  NoSun,                                  ! Sun Exposure
  NoWind,                                 ! Wind Exposure
  ,                                       ! View Factor to Ground
  ,                                       ! Number of Vertices
  0, 44, 4,                               ! X,Y,Z Vertex 1 {m}
  0, 44, 0,                               ! X,Y,Z Vertex 2 {m}
  0, 0, 0,                                ! X,Y,Z Vertex 3 {m}
  0, 0, 4;                                ! X,Y,Z Vertex 4 {m}

OS:Surface,
  {b7669357-f33a-46d8-bc83-2c89181f344e}, ! Handle
  Surface 27,                             ! Name
  Wall,                                   ! Surface Type
  ,                                       ! Construction Name
  {ecec80ee-7811-4791-b10e-7fccd90db202}, ! Space Name
  Surface,                                ! Outside Boundary Condition
  {e9cc3733-044d-4286-b500-923a50d809ce}, ! Outside Boundary Condition Object
  NoSun,                                  ! Sun Exposure
  NoWind,                                 ! Wind Exposure
  ,                                       ! View Factor to Ground
  ,                                       ! Number of Vertices
  94, 44, 4,                              ! X,Y,Z Vertex 1 {m}
  94, 44, 0,                              ! X,Y,Z Vertex 2 {m}
  0, 44, 0,                               ! X,Y,Z Vertex 3 {m}
  0, 44, 4;                               ! X,Y,Z Vertex 4 {m}

OS:Surface,
  {045ab629-cbcb-4ef1-992d-9db0aa263344}, ! Handle
  Surface 28,                             ! Name
  Wall,                                   ! Surface Type
  ,                                       ! Construction Name