
OS:Version,
  {4bf10dcb-6ec1-43ae-a00d-1e8508d2d18e}, !- Handle
  2.4.1;                                  !- Version Identifier

OS:BuildingStory,
  {1135077a-1d82-46a5-9202-a8199a83ad4b}, !- Handle
  Story 1,                                !- Name
  0,                                      !- Nominal Z Coordinate {m}
  3,                                      !- Nominal Floor to Floor Height {m}
  ,                                       !- Default Construction Set Name
  ,                                       !- Default Schedule Set Name
  ;                                       !- Group Rendering Name

OS:Space,
  {2e8977b5-afbf-4bab-b19f-6d0962d87e76}, !- Handle
  Story 1 West Perimeter Space,           !- Name
  ,                                       !- Space Type Name
  ,                                       !- Default Construction Set Name
  ,                                       !- Default Schedule Set Name
  -0,                                     !- Direction of Relative North {deg}
  0,                                      !- X Origin {m}
  0,                                      !- Y Origin {m}
  0,                                      !- Z Origin {m}
  {1135077a-1d82-46a5-9202-a8199a83ad4b}, !- Building Story Name
  {cf8fc587-9b3b-4955-861b-646e385ec1a6}; !- Thermal Zone Name

OS:Surface,
  {df68178a-64db-4b54-bc1c-38489e4f5e21}, !- Handle
  Surface 1,                              !- Name
  Floor,                                  !- Surface Type
  ,                                       !- Construction Name
  {2e8977b5-afbf-4bab-b19f-6d0962d87e76}, !- Space Name
  Ground,                                 !- Outside Boundary Condition
  ,                                       !- Outside Boundary Condition Object
  NoSun,                                  !- Sun Exposure
  NoWind,                                 !- Wind Exposure
  ,                                       !- View Factor to Ground
  ,                                       !- Number of Vertices
  0, 0, 0,                                !- X,Y,Z Vertex 1 {m}
  0, 50, 0,                               !- X,Y,Z Vertex 2 {m}
  3, 47, 0,                               !- X,Y,Z Vertex 3 {m}
  3, 3, 0;                                !- X,Y,Z Vertex 4 {m}

OS:Surface,
  {57426d82-c0ed-45c9-b390-0a432856b841}, !- Handle
  Surface 2,                              !- Name
  Wall,                                   !- Surface Type
  ,                                       !- Construction Name
  {2e8977b5-afbf-4bab-b19f-6d0962d87e76}, !- Space Name
  Outdoors,                               !- Outside Boundary Condition
  ,                                       !- Outside Boundary Condition Object
  SunExposed,                             !- Sun Exposure
  WindExposed,                            !- Wind Exposure
  ,                                       !- View Factor to Ground
  ,                                       !- Number of Vertices
  0, 50, 3,                               !- X,Y,Z Vertex 1 {m}
  0, 50, 0,                               !- X,Y,Z Vertex 2 {m}
  0, 0, 0,                                !- X,Y,Z Vertex 3 {m}
  0, 0, 3;                                !- X,Y,Z Vertex 4 {m}

OS:Surface,
  {2c3e9b51-3430-4226-83e0-58ba2f0bc92d}, !- Handle
  Surface 3,                              !- Name
  Wall,                                   !- Surface Type
  ,                                       !- Construction Name
  {2e8977b5-afbf-4bab-b19f-6d0962d87e76}, !- Space Name
  Surface,                                !- Outside Boundary Condition
  {bf7dc4cc-7339-4d2b-9e54-5f8ff789431f}, !- Outside Boundary Condition Object
  NoSun,                                  !- Sun Exposure
  NoWind,                                 !- Wind Exposure
  ,                                       !- View Factor to Ground
  ,                                       !- Number of Vertices
  3, 47, 3,                               !- X,Y,Z Vertex 1 {m}
  3, 47, 0,                               !- X,Y,Z Vertex 2 {m}
  0, 50, 0,                               !- X,Y,Z Vertex 3 {m}
  0, 50, 3;                               !- X,Y,Z Vertex 4 {m}

OS:Surface,
  {a00264fb-ea05-4faa-965d-8e3081c535c0}, !- Handle
  Surface 4,                              !- Name
  Wall,                                   !- Surface Type
  ,                                       !- Construction Name
  {2e8977b5-afbf-4bab-b19f-6d0962d87e76}, !- Space Name
  Surface,                                !- Outside Boundary Condition
  {04b0461c-069b-4bd2-88a2-687f783a681c}, !- Outside Boundary Condition Object
  NoSun,                                  !- Sun Exposure
  NoWind,                                 !- Wind Exposure
  ,                                       !- View Factor to Ground
  ,                                       !- Number of Vertices
  3, 3, 3,                                !- X,Y,Z Vertex 1 {m}
  3, 3, 0,                                !- X,Y,Z Vertex 2 {m}
  3, 47, 0,                               !- X,Y,Z Vertex 3 {m}
  3, 47, 3;                               !- X,Y,Z Vertex 4 {m}

OS:Surface,
  {15d9591c-4b92-4eb0-a6f8-9d7ff601d5ce}, !- Handle
  Surface 5,                              !- Name
  Wall,                                   !- Surface Type
  ,                                       !- Construction Name
  {2e8977b5-afbf-4bab-b19f-6d0962d87e76}, !- Space Name
  Surface,                                !- Outside Boundary Condition
  {a8fb5c32-5eaf-45db-abb9-8da052f9770e}, !- Outside Boundary Condition Object
  NoSun,                                  !- Sun Exposure
  NoWind,                                 !- Wind Exposure
  ,                                       !- View Factor to Ground
  ,                                       !- Number of Vertices
  0, 0, 3,                                !- X,Y,Z Vertex 1 {m}
  0, 0, 0,                                !- X,Y,Z Vertex 2 {m}
  3, 3, 0,                                !- X,Y,Z Vertex 3 {m}
  3, 3, 3;                                !- X,Y,Z Vertex 4 {m}

OS:Surface,
  {ff5151ec-bfcf-4f06-ae7a-7c8fd7ace5e0}, !- Handle
  Surface 6,                              !- Name
  RoofCeiling,                            !- Surface Type
  ,                                       !- Construction Name
  {2e8977b5-afbf-4bab-b19f-6d0962d87e76}, !- Space Name
  Outdoors,                               !- Outside Boundary Condition
  ,                                       !- Outside Boundary Condition Object
  SunExposed,                             !- Sun Exposure
  WindExposed,                            !- Wind Exposure
  ,                                       !- View Factor to Ground
  ,                                       !- Number of Vertices
  3, 3, 3,                                !- X,Y,Z Vertex 1 {m}
  3, 47, 3,                               !- X,Y,Z Vertex 2 {m}
  0, 50, 3,                               !- X,Y,Z Vertex 3 {m}
  0, 0, 3;                                !- X,Y,Z Vertex 4 {m}

OS:Space,
  {b2aa5ddf-5805-4ea2-ae72-ed4751a5b201}, !- Handle
  Story 1 North Perimeter Space,          !- Name
  ,                                       !- Space Type Name
  ,                                       !- Default Construction Set Name
  ,                                       !- Default Schedule Set Name
  -0,                                     !- Direction of Relative North {deg}
  3,                                      !- X Origin {m}
  47,                                     !- Y Origin {m}
  0,                                      !- Z Origin {m}
  {1135077a-1d82-46a5-9202-a8199a83ad4b}, !- Building Story Name
  {50b3c5c6-5ea0-4d38-8021-1ef8c8ea188f}; !- Thermal Zone Name

OS:Surface,
  {6a047c1c-e7a0-40fc-8383-23d589510d76}, !- Handle
  Surface 7,                              !- Name
  Floor,                                  !- Surface Type
  ,                                       !- Construction Name
  {b2aa5ddf-5805-4ea2-ae72-ed4751a5b201}, !- Space Name
  Ground,                                 !- Outside Boundary Condition
  ,                                       !- Outside Boundary Condition Object
  NoSun,                                  !- Sun Exposure
  NoWind,                                 !- Wind Exposure
  ,                                       !- View Factor to Ground
  ,                                       !- Number of Vertices
  -3, 3, 0,                               !- X,Y,Z Vertex 1 {m}
  97, 3, 0,                               !- X,Y,Z Vertex 2 {m}
  94, 0, 0,                               !- X,Y,Z Vertex 3 {m}
  0, 0, 0;                                !- X,Y,Z Vertex 4 {m}

OS:Surface,
  {87560612-5e9f-451e-9f61-7b2f6d7d370c}, !- Handle
  Surface 8,                              !- Name
  Wall,                                   !- Surface Type
  ,                                       !- Construction Name
  {b2aa5ddf-5805-4ea2-ae72-ed4751a5b201}, !- Space Name
  Outdoors,                               !- Outside Boundary Condition
  ,                                       !- Outside Boundary Condition Object
  SunExposed,                             !- Sun Exposure
  WindExposed,                            !- Wind Exposure
  ,                                       !- View Factor to Ground
  ,                                       !- Number of Vertices
  97, 3, 3,                               !- X,Y,Z Vertex 1 {m}
  97, 3, 0,                               !- X,Y,Z Vertex 2 {m}
  -3, 3, 0,                               !- X,Y,Z Vertex 3 {m}
  -3, 3, 3;                               !- X,Y,Z Vertex 4 {m}

OS:Surface,
  {7f99345a-5621-4d9c-b5d9-d4b15d1cc304}, !- Handle
  Surface 9,                              !- Name
  Wall,                                   !- Surface Type
  ,                                       !- Construction Name
  {b2aa5ddf-5805-4ea2-ae72-ed4751a5b201}, !- Space Name
  Surface,                                !- Outside Boundary Condition
  {8e679234-1734-44fa-a007-1102a119eb8d}, !- Outside Boundary Condition Object
  NoSun,                                  !- Sun Exposure
  NoWind,                                 !- Wind Exposure
  ,                                       !- View Factor to Ground
  ,                                       !- Number of Vertices
  94, 0, 3,                               !- X,Y,Z Vertex 1 {m}
  94, 0, 0,                               !- X,Y,Z Vertex 2 {m}
  97, 3, 0,                               !- X,Y,Z Vertex 3 {m}
  97, 3, 3;                               !- X,Y,Z Vertex 4 {m}

OS:Surface,
  {e3694ab9-78ca-48c7-8aa2-ba5cb33174cc}, !- Handle
  Surface 10,                             !- Name
  Wall,                                   !- Surface Type
  ,                                       !- Construction Name
  {b2aa5ddf-5805-4ea2-ae72-ed4751a5b201}, !- Space Name
  Surface,                                !- Outside Boundary Condition
  {7a45661c-e2c0-4d76-a628-1adf7dc4edbd}, !- Outside Boundary Condition Object
  NoSun,                                  !- Sun Exposure
  NoWind,                                 !- Wind Exposure
  ,                                       !- View Factor to Ground
  ,                                       !- Number of Vertices
  0, 0, 3,                                !- X,Y,Z Vertex 1 {m}
  0, 0, 0,                                !- X,Y,Z Vertex 2 {m}
  94, 0, 0,                               !- X,Y,Z Vertex 3 {m}
  94, 0, 3;                               !- X,Y,Z Vertex 4 {m}

OS:Surface,
  {bf7dc4cc-7339-4d2b-9e54-5f8ff789431f}, !- Handle
  Surface 11,                             !- Name
  Wall,                                   !- Surface Type
  ,                                       !- Construction Name
  {b2aa5ddf-5805-4ea2-ae72-ed4751a5b201}, !- Space Name
  Surface,                                !- Outside Boundary Condition
  {2c3e9b51-3430-4226-83e0-58ba2f0bc92d}, !- Outside Boundary Condition Object
  NoSun,                                  !- Sun Exposure
  NoWind,                                 !- Wind Exposure
  ,                                       !- View Factor to Ground
  ,                                       !- Number of Vertices
  -3, 3, 3,                               !- X,Y,Z Vertex 1 {m}
  -3, 3, 0,                               !- X,Y,Z Vertex 2 {m}
  0, 0, 0,                                !- X,Y,Z Vertex 3 {m}
  0, 0, 3;                                !- X,Y,Z Vertex 4 {m}

OS:Surface,
  {fc3c764b-b8ef-430e-97e6-c959678b88ee}, !- Handle
  Surface 12,                             !- Name
  RoofCeiling,                            !- Surface Type
  ,                                       !- Construction Name
  {b2aa5ddf-5805-4ea2-ae72-ed4751a5b201}, !- Space Name
  Outdoors,                               !- Outside Boundary Condition
  ,                                       !- Outside Boundary Condition Object
  SunExposed,                             !- Sun Exposure
  WindExposed,                            !- Wind Exposure
  ,                                       !- View Factor to Ground
  ,                                       !- Number of Vertices
  0, 0, 3,                                !- X,Y,Z Vertex 1 {m}
  94, 0, 3,                               !- X,Y,Z Vertex 2 {m}
  97, 3, 3,                               !- X,Y,Z Vertex 3 {m}
  -3, 3, 3;                               !- X,Y,Z Vertex 4 {m}

OS:Space,
  {8c1ea562-07d6-44ee-aa7f-84689bb6d706}, !- Handle
  Story 1 East Perimeter Space,           !- Name
  ,                                       !- Space Type Name
  ,                                       !- Default Construction Set Name
  ,                                       !- Default Schedule Set Name
  -0,                                     !- Direction of Relative North {deg}
  97,                                     !- X Origin {m}
  3,                                      !- Y Origin {m}
  0,                                      !- Z Origin {m}
  {1135077a-1d82-46a5-9202-a8199a83ad4b}, !- Building Story Name
  {94432ecb-ee5f-4f63-8e87-b1343685756e}; !- Thermal Zone Name

OS:Surface,
  {0193d70d-df6c-4498-a343-caaedd4d7ee6}, !- Handle
  Surface 13,                             !- Name
  Floor,                                  !- Surface Type
  ,                                       !- Construction Name
  {8c1ea562-07d6-44ee-aa7f-84689bb6d706}, !- Space Name
  Ground,                                 !- Outside Boundary Condition
  ,                                       !- Outside Boundary Condition Object
  NoSun,                                  !- Sun Exposure
  NoWind,                                 !- Wind Exposure
  ,                                       !- View Factor to Ground
  ,                                       !- Number of Vertices
  3, 47, 0,                               !- X,Y,Z Vertex 1 {m}
  3, -3, 0,                               !- X,Y,Z Vertex 2 {m}
  0, 0, 0,                                !- X,Y,Z Vertex 3 {m}
  0, 44, 0;                               !- X,Y,Z Vertex 4 {m}

OS:Surface,
  {20152200-83ba-4c48-899d-5aacd9f4f564}, !- Handle
  Surface 14,                             !- Name
  Wall,                                   !- Surface Type
  ,                                       !- Construction Name
  {8c1ea562-07d6-44ee-aa7f-84689bb6d706}, !- Space Name
  Outdoors,                               !- Outside Boundary Condition
  ,                                       !- Outside Boundary Condition Object
  SunExposed,                             !- Sun Exposure
  WindExposed,                            !- Wind Exposure
  ,                                       !- View Factor to Ground
  ,                                       !- Number of Vertices
  3, -3, 3,                               !- X,Y,Z Vertex 1 {m}
  3, -3, 0,                               !- X,Y,Z Vertex 2 {m}
  3, 47, 0,                               !- X,Y,Z Vertex 3 {m}
  3, 47, 3;                               !- X,Y,Z Vertex 4 {m}

OS:Surface,
  {c98ed958-f02b-43d9-8580-e0b1d5464719}, !- Handle
  Surface 15,                             !- Name
  Wall,                                   !- Surface Type
  ,                                       !- Construction Name
  {8c1ea562-07d6-44ee-aa7f-84689bb6d706}, !- Space Name
  Surface,                                !- Outside Boundary Condition
  {29b55db1-b8cf-4dfb-bb8f-a1d81ed2d651}, !- Outside Boundary Condition Object
  NoSun,                                  !- Sun Exposure
  NoWind,                                 !- Wind Exposure
  ,                                       !- View Factor to Ground
  ,                                       !- Number of Vertices
  0, 0, 3,                                !- X,Y,Z Vertex 1 {m}
  0, 0, 0,                                !- X,Y,Z Vertex 2 {m}
  3, -3, 0,                               !- X,Y,Z Vertex 3 {m}
  3, -3, 3;                               !- X,Y,Z Vertex 4 {m}

OS:Surface,
  {49dd813b-11a3-4f89-855b-ac9acd4d457b}, !- Handle
  Surface 16,                             !- Name
  Wall,                                   !- Surface Type
  ,                                       !- Construction Name
  {8c1ea562-07d6-44ee-aa7f-84689bb6d706}, !- Space Name
  Surface,                                !- Outside Boundary Condition
  {b8124153-b811-42b6-8a54-4139f2799bda}, !- Outside Boundary Condition Object
  NoSun,                                  !- Sun Exposure
  NoWind,                                 !- Wind Exposure
  ,                                       !- View Factor to Ground
  ,                                       !- Number of Vertices
  0, 44, 3,                               !- X,Y,Z Vertex 1 {m}
  0, 44, 0,                               !- X,Y,Z Vertex 2 {m}
  0, 0, 0,                                !- X,Y,Z Vertex 3 {m}
  0, 0, 3;                                !- X,Y,Z Vertex 4 {m}

OS:Surface,
  {8e679234-1734-44fa-a007-1102a119eb8d}, !- Handle
  Surface 17,                             !- Name
  Wall,                                   !- Surface Type
  ,                                       !- Construction Name
  {8c1ea562-07d6-44ee-aa7f-84689bb6d706}, !- Space Name
  Surface,                                !- Outside Boundary Condition
  {7f99345a-5621-4d9c-b5d9-d4b15d1cc304}, !- Outside Boundary Condition Object
  NoSun,                                  !- Sun Exposure
  NoWind,                                 !- Wind Exposure
  ,                                       !- View Factor to Ground
  ,                                       !- Number of Vertices
  3, 47, 3,                               !- X,Y,Z Vertex 1 {m}
  3, 47, 0,                               !- X,Y,Z Vertex 2 {m}
  0, 44, 0,                               !- X,Y,Z Vertex 3 {m}
  0, 44, 3;                               !- X,Y,Z Vertex 4 {m}

OS:Surface,
  {e58d5b35-877a-43d8-823b-89011a2b6d99}, !- Handle
  Surface 18,                             !- Name
  RoofCeiling,                            !- Surface Type
  ,                                       !- Construction Name
  {8c1ea562-07d6-44ee-aa7f-84689bb6d706}, !- Space Name
  Outdoors,                               !- Outside Boundary Condition
  ,                                       !- Outside Boundary Condition Object
  SunExposed,                             !- Sun Exposure
  WindExposed,                            !- Wind Exposure
  ,                                       !- View Factor to Ground
  ,                                       !- Number of Vertices
  0, 44, 3,                               !- X,Y,Z Vertex 1 {m}
  0, 0, 3,                                !- X,Y,Z Vertex 2 {m}
  3, -3, 3,                               !- X,Y,Z Vertex 3 {m}
  3, 47, 3;                               !- X,Y,Z Vertex 4 {m}

OS:Space,
  {fff3b4e9-d66b-4b0a-9f41-c61159617417}, !- Handle
  Story 1 South Perimeter Space,          !- Name
  ,                                       !- Space Type Name
  ,                                       !- Default Construction Set Name
  ,                                       !- Default Schedule Set Name
  -0,                                     !- Direction of Relative North {deg}
  0,                                      !- X Origin {m}
  0,                                      !- Y Origin {m}
  0,                                      !- Z Origin {m}
  {1135077a-1d82-46a5-9202-a8199a83ad4b}, !- Building Story Name
  {4b80d39e-b74d-4f9d-a2ae-e62227b3fc8d}; !- Thermal Zone Name

OS:Surface,
  {38e0ad8d-9ad0-4fc4-92dd-f7c70a5fb511}, !- Handle
  Surface 19,                             !- Name
  Floor,                                  !- Surface Type
  ,                                       !- Construction Name
  {fff3b4e9-d66b-4b0a-9f41-c61159617417}, !- Space Name
  Ground,                                 !- Outside Boundary Condition
  ,                                       !- Outside Boundary Condition Object
  NoSun,                                  !- Sun Exposure
  NoWind,                                 !- Wind Exposure
  ,                                       !- View Factor to Ground
  ,                                       !- Number of Vertices
  100, 0, 0,                              !- X,Y,Z Vertex 1 {m}
  0, 0, 0,                                !- X,Y,Z Vertex 2 {m}
  3, 3, 0,                                !- X,Y,Z Vertex 3 {m}
  97, 3, 0;                               !- X,Y,Z Vertex 4 {m}

OS:Surface,
  {05847d54-a0b6-45db-94d3-f3cee373f8a5}, !- Handle
  Surface 20,                             !- Name
  Wall,                                   !- Surface Type
  ,                                       !- Construction Name
  {fff3b4e9-d66b-4b0a-9f41-c61159617417}, !- Space Name
  Outdoors,                               !- Outside Boundary Condition
  ,                                       !- Outside Boundary Condition Object
  SunExposed,                             !- Sun Exposure
  WindExposed,                            !- Wind Exposure
  ,                                       !- View Factor to Ground
  ,                                       !- Number of Vertices
  0, 0, 3,                                !- X,Y,Z Vertex 1 {m}
  0, 0, 0,                                !- X,Y,Z Vertex 2 {m}
  100, 0, 0,                              !- X,Y,Z Vertex 3 {m}
  100, 0, 3;                              !- X,Y,Z Vertex 4 {m}

OS:Surface,
  {a8fb5c32-5eaf-45db-abb9-8da052f9770e}, !- Handle
  Surface 21,                             !- Name
  Wall,                                   !- Surface Type
  ,                                       !- Construction Name
  {fff3b4e9-d66b-4b0a-9f41-c61159617417}, !- Space Name
  Surface,                                !- Outside Boundary Condition
  {15d9591c-4b92-4eb0-a6f8-9d7ff601d5ce}, !- Outside Boundary Condition Object
  NoSun,                                  !- Sun Exposure
  NoWind,                                 !- Wind Exposure
  ,                                       !- View Factor to Ground
  ,                                       !- Number of Vertices
  3, 3, 3,                                !- X,Y,Z Vertex 1 {m}
  3, 3, 0,                                !- X,Y,Z Vertex 2 {m}
  0, 0, 0,                                !- X,Y,Z Vertex 3 {m}
  0, 0, 3;                                !- X,Y,Z Vertex 4 {m}

OS:Surface,
  {007f6f85-dd7f-4169-92d8-7c2bbf6caaad}, !- Handle
  Surface 22,                             !- Name
  Wall,                                   !- Surface Type
  ,                                       !- Construction Name
  {fff3b4e9-d66b-4b0a-9f41-c61159617417}, !- Space Name
  Surface,                                !- Outside Boundary Condition
  {9374853f-8f14-45f8-84fa-c8cd87e81b52}, !- Outside Boundary Condition Object
  NoSun,                                  !- Sun Exposure
  NoWind,                                 !- Wind Exposure
  ,                                       !- View Factor to Ground
  ,                                       !- Number of Vertices
  97, 3, 3,                               !- X,Y,Z Vertex 1 {m}
  97, 3, 0,                               !- X,Y,Z Vertex 2 {m}
  3, 3, 0,                                !- X,Y,Z Vertex 3 {m}
  3, 3, 3;                                !- X,Y,Z Vertex 4 {m}

OS:Surface,
  {29b55db1-b8cf-4dfb-bb8f-a1d81ed2d651}, !- Handle
  Surface 23,                             !- Name
  Wall,                                   !- Surface Type
  ,                                       !- Construction Name
  {fff3b4e9-d66b-4b0a-9f41-c61159617417}, !- Space Name
  Surface,                                !- Outside Boundary Condition
  {c98ed958-f02b-43d9-8580-e0b1d5464719}, !- Outside Boundary Condition Object
  NoSun,                                  !- Sun Exposure
  NoWind,                                 !- Wind Exposure
  ,                                       !- View Factor to Ground
  ,                                       !- Number of Vertices
  100, 0, 3,                              !- X,Y,Z Vertex 1 {m}
  100, 0, 0,                              !- X,Y,Z Vertex 2 {m}
  97, 3, 0,                               !- X,Y,Z Vertex 3 {m}
  97, 3, 3;                               !- X,Y,Z Vertex 4 {m}

OS:Surface,
  {3dc5ec8b-a812-44bf-b622-24060fa52b40}, !- Handle
  Surface 24,                             !- Name
  RoofCeiling,                            !- Surface Type
  ,                                       !- Construction Name
  {fff3b4e9-d66b-4b0a-9f41-c61159617417}, !- Space Name
  Outdoors,                               !- Outside Boundary Condition
  ,                                       !- Outside Boundary Condition Object
  SunExposed,                             !- Sun Exposure
  WindExposed,                            !- Wind Exposure
  ,                                       !- View Factor to Ground
  ,                                       !- Number of Vertices
  97, 3, 3,                               !- X,Y,Z Vertex 1 {m}
  3, 3, 3,                                !- X,Y,Z Vertex 2 {m}
  0, 0, 3,                                !- X,Y,Z Vertex 3 {m}
  100, 0, 3;                              !- X,Y,Z Vertex 4 {m}

OS:Space,
  {d9aa9b99-384b-470c-bad3-19f9a4542cb4}, !- Handle
  Story 1 Core Space,                     !- Name
  ,                                       !- Space Type Name
  ,                                       !- Default Construction Set Name
  ,                                       !- Default Schedule Set Name
  -0,                                     !- Direction of Relative North {deg}
  3,                                      !- X Origin {m}
  3,                                      !- Y Origin {m}
  0,                                      !- Z Origin {m}
  {1135077a-1d82-46a5-9202-a8199a83ad4b}, !- Building Story Name
  {76d6a11e-4800-4853-856d-4f17d8c809f0}; !- Thermal Zone Name

OS:Surface,
  {a86a9bc9-b7a4-45e8-9ed2-2ca24a14648b}, !- Handle
  Surface 25,                             !- Name
  Floor,                                  !- Surface Type
  ,                                       !- Construction Name
  {d9aa9b99-384b-470c-bad3-19f9a4542cb4}, !- Space Name
  Ground,                                 !- Outside Boundary Condition
  ,                                       !- Outside Boundary Condition Object
  NoSun,                                  !- Sun Exposure
  NoWind,                                 !- Wind Exposure
  ,                                       !- View Factor to Ground
  ,                                       !- Number of Vertices
  0, 0, 0,                                !- X,Y,Z Vertex 1 {m}
  0, 44, 0,                               !- X,Y,Z Vertex 2 {m}
  94, 44, 0,                              !- X,Y,Z Vertex 3 {m}
  94, 0, 0;                               !- X,Y,Z Vertex 4 {m}

OS:Surface,
  {04b0461c-069b-4bd2-88a2-687f783a681c}, !- Handle
  Surface 26,                             !- Name
  Wall,                                   !- Surface Type
  ,                                       !- Construction Name
  {d9aa9b99-384b-470c-bad3-19f9a4542cb4}, !- Space Name
  Surface,                                !- Outside Boundary Condition
  {a00264fb-ea05-4faa-965d-8e3081c535c0}, !- Outside Boundary Condition Object
  NoSun,                                  !- Sun Exposure
  NoWind,                                 !- Wind Exposure
  ,                                       !- View Factor to Ground
  ,                                       !- Number of Vertices
  0, 44, 3,                               !- X,Y,Z Vertex 1 {m}
  0, 44, 0,                               !- X,Y,Z Vertex 2 {m}
  0, 0, 0,                                !- X,Y,Z Vertex 3 {m}
  0, 0, 3;                                !- X,Y,Z Vertex 4 {m}

OS:Surface,
  {7a45661c-e2c0-4d76-a628-1adf7dc4edbd}, !- Handle
  Surface 27,                             !- Name
  Wall,                                   !- Surface Type
  ,                                       !- Construction Name
  {d9aa9b99-384b-470c-bad3-19f9a4542cb4}, !- Space Name
  Surface,                                !- Outside Boundary Condition
  {e3694ab9-78ca-48c7-8aa2-ba5cb33174cc}, !- Outside Boundary Condition Object
  NoSun,                                  !- Sun Exposure
  NoWind,                                 !- Wind Exposure
  ,                                       !- View Factor to Ground
  ,                                       !- Number of Vertices
  94, 44, 3,                              !- X,Y,Z Vertex 1 {m}
  94, 44, 0,                              !- X,Y,Z Vertex 2 {m}
  0, 44, 0,                               !- X,Y,Z Vertex 3 {m}
  0, 44, 3;                               !- X,Y,Z Vertex 4 {m}

OS:Surface,
  {b8124153-b811-42b6-8a54-4139f2799bda}, !- Handle
  Surface 28,                             !- Name
  Wall,                                   !- Surface Type
  ,                                       !- Construction Name
  {d9aa9b99-384b-470c-bad3-19f9a4542cb4}, !- Space Name