
OS:Version,
  {a7d2297c-9429-4e58-abfb-7e0a5c02e58d}, !- Handle
  3.5.0;                                  !- Version Identifier

OS:BuildingStory,
  {8eb95466-8c03-4de2-8185-8f36a237fe77}, !- Handle
  Story 1,                                !- Name
  0,                                      !- Nominal Z Coordinate {m}
  4,                                      !- Nominal Floor to Floor Height {m}
  ,                                       !- Default Construction Set Name
  ,                                       !- Default Schedule Set Name
  ;                                       !- Group Rendering Name

OS:Space,
  {322231c0-9cec-44b2-ae6d-19e902e3617d}, !- Handle
  Story 1 Core Space,                     !- Name
  ,                                       !- Space Type Name
  ,                                       !- Default Construction Set Name
  ,                                       !- Default Schedule Set Name
  -0,                                     !- Direction of Relative North {deg}
  0,                                      !- X Origin {m}
  0,                                      !- Y Origin {m}
  0,                                      !- Z Origin {m}
  {8eb95466-8c03-4de2-8185-8f36a237fe77}, !- Building Story Name
  {134f23f4-5fbd-4361-96a7-4c4a2117d661}; !- Thermal Zone Name

OS:Surface,
  {4a8f95c2-fab6-4d99-b3a0-4101111e65af}, !- Handle
  Story 1 Core Space Exterior Ground Floor, !- Name
  Floor,                                  !- Surface Type
  ,                                       !- Construction Name
  {322231c0-9cec-44b2-ae6d-19e902e3617d}, !- Space Name
  Ground,                                 !- Outside Boundary Condition
  ,                                       !- Outside Boundary Condition Object
  NoSun,                                  !- Sun Exposure
  NoWind,                                 !- Wind Exposure
  ,                                       !- View Factor to Ground
  ,                                       !- Number of Vertices
  0, 0, 0,                                !- X,Y,Z Vertex 1 {m}
  0, 50, 0,                               !- X,Y,Z Vertex 2 {m}
  100, 50, 0,                             !- X,Y,Z Vertex 3 {m}
  100, 0, 0;                              !- X,Y,Z Vertex 4 {m}

OS:Surface,
  {e897f4d6-5b37-4712-bdff-bfa3b6e710cc}, !- Handle
  Story 1 Core Space Exterior Wall 3,     !- Name
  Wall,                                   !- Surface Type
  ,                                       !- Construction Name
  {322231c0-9cec-44b2-ae6d-19e902e3617d}, !- Space Name
  Outdoors,                               !- Outside Boundary Condition
  ,                                       !- Outside Boundary Condition Object
  SunExposed,                             !- Sun Exposure
  WindExposed,                            !- Wind Exposure
  ,                                       !- View Factor to Ground
  ,                                       !- Number of Vertices
  0, 50, 4,                               !- X,Y,Z Vertex 1 {m}
  0, 50, 0,                               !- X,Y,Z Vertex 2 {m}
  0, 0, 0,                                !- X,Y,Z Vertex 3 {m}
  0, 0, 4;                                !- X,Y,Z Vertex 4 {m}

OS:Surface,
  {0bfeaf8b-0f8f-4f8e-b9a9-482053547dcb}, !- Handle
  Story 1 Core Space Exterior Wall 2,     !- Name
  Wall,                                   !- Surface Type
  ,                                       !- Construction Name
  {322231c0-9cec-44b2-ae6d-19e902e3617d}, !- Space Name
  Outdoors,                               !- Outside Boundary Condition
  ,                                       !- Outside Boundary Condition Object
  SunExposed,                             !- Sun Exposure
  WindExposed,                            !- Wind Exposure
  ,                                       !- View Factor to Ground
  ,                                       !- Number of Vertices
  100, 50, 4,                             !- X,Y,Z Vertex 1 {m}
  100, 50, 0,                             !- X,Y,Z Vertex 2 {m}
  0, 50, 0,                               !- X,Y,Z Vertex 3 {m}
  0, 50, 4;                               !- X,Y,Z Vertex 4 {m}

OS:Surface,
  {9e7c2f5d-5403-4e67-ac26-33825bf0b9f0}, !- Handle
  Story 1 Core Space Exterior Wall 1,     !- Name
  Wall,                                   !- Surface Type
  ,                                       !- Construction Name
  {322231c0-9cec-44b2-ae6d-19e902e3617d}, !- Space Name
  Outdoors,                               !- Outside Boundary Condition
  ,                                       !- Outside Boundary Condition Object
  SunExposed,                             !- Sun Exposure
  WindExposed,                            !- Wind Exposure
  ,                                       !- View Factor to Ground
  ,                                       !- Number of Vertices
  100, 0, 4,                              !- X,Y,Z Vertex 1 {m}
  100, 0, 0,                              !- X,Y,Z Vertex 2 {m}
  100, 50, 0,                             !- X,Y,Z Vertex 3 {m}
  100, 50, 4;                             !- X,Y,Z Vertex 4 {m}

OS:Surface,
  {f2a36dcb-9274-45fa-a5d6-b687ca027795}, !- Handle
  Story 1 Core Space Exterior Wall,       !- Name
  Wall,                                   !- Surface Type
  ,                                       !- Construction Name
  {322231c0-9cec-44b2-ae6d-19e902e3617d}, !- Space Name
  Outdoors,                               !- Outside Boundary Condition
  ,                                       !- Outside Boundary Condition Object
  SunExposed,                             !- Sun Exposure
  WindExposed,                            !- Wind Exposure
  ,                                       !- View Factor to Ground
  ,                                       !- Number of Vertices
  0, 0, 4,                                !- X,Y,Z Vertex 1 {m}
  0, 0, 0,                                !- X,Y,Z Vertex 2 {m}
  100, 0, 0,                              !- X,Y,Z Vertex 3 {m}
  100, 0, 4;                              !- X,Y,Z Vertex 4 {m}

OS:Surface,
  {104bb124-73dc-4d11-b9f0-2619113d1e95}, !- Handle
  Story 1 Core Space Exterior Roof,       !- Name
  RoofCeiling,                            !- Surface Type
  ,                                       !- Construction Name
  {322231c0-9cec-44b2-ae6d-19e902e3617d}, !- Space Name
  Outdoors,                               !- Outside Boundary Condition
  ,                                       !- Outside Boundary Condition Object
  SunExposed,                             !- Sun Exposure
  WindExposed,                            !- Wind Exposure
  ,                                       !- View Factor to Ground
  ,                                       !- Number of Vertices
  100, 0, 4,                              !- X,Y,Z Vertex 1 {m}
  100, 50, 4,                             !- X,Y,Z Vertex 2 {m}
  0, 50, 4,                               !- X,Y,Z Vertex 3 {m}
  0, 0, 4;                                !- X,Y,Z Vertex 4 {m}

OS:ThermalZone,
  {134f23f4-5fbd-4361-96a7-4c4a2117d661}, !- Handle
  Story 1 Core Thermal Zone,              !- Name
  ,                                       !- Multiplier
  ,                                       !- Ceiling Height {m}
  ,                                       !- Volume {m3}
  ,                                       !- Floor Area {m2}
  ,                                       !- Zone Inside Convection Algorithm
  ,                                       !- Zone Outside Convection Algorithm
  ,                                       !- Zone Conditioning Equipment List Name
  {3d5be8aa-0141-40d9-9f71-9c5684cfb034}, !- Zone Air Inlet Port List
  {71e52ebd-19b2-4baa-9f8d-cb8cb58f2a4d}, !- Zone Air Exhaust Port List
  {d32a7d55-fb32-43fc-8518-8a6f7523210a}, !- Zone Air Node Name
  {2f77a810-b1ad-43cb-85cf-33d6fac3a445}, !- Zone Return Air Port List
  ,                                       !- Primary Daylighting Control Name
  ,                                       !- Fraction of Zone Controlled by Primary Daylighting Control
  ,                                       !- Secondary Daylighting Control Name
  ,                                       !- Fraction of Zone Controlled by Secondary Daylighting Control
  ,                                       !- Illuminance Map Name
  ,                                       !- Group Rendering Name
  {d5b731e6-463e-48ea-99c9-fc60a2317219}, !- Thermostat Name
  No;                                     !- Use Ideal Air Loads

OS:Node,
  {ea0992d4-60bd-4be4-8805-123efcc46b5e}, !- Handle
  Story 1 Core Thermal Zone Zone Air Node, !- Name
  {d32a7d55-fb32-43fc-8518-8a6f7523210a}, !- Inlet Port
  ;                                       !- Outlet Port

OS:Connection,
  {d32a7d55-fb32-43fc-8518-8a6f7523210a}, !- Handle
  {134f23f4-5fbd-4361-96a7-4c4a2117d661}, !- Source Object
  11,                                     !- Outlet Port
  {ea0992d4-60bd-4be4-8805-123efcc46b5e}, !- Target Object
  2;                                      !- Inlet Port

OS:PortList,
  {3d5be8aa-0141-40d9-9f71-9c5684cfb034}, !- Handle
  {134f23f4-5fbd-4361-96a7-4c4a2117d661}, !- HVAC Component
  {431b5665-6b35-46a3-936a-39ae96b2cf90}; !- Port 1

OS:PortList,
  {71e52ebd-19b2-4baa-9f8d-cb8cb58f2a4d}, !- Handle
  {134f23f4-5fbd-4361-96a7-4c4a2117d661}; !- HVAC Component

OS:PortList,
  {2f77a810-b1ad-43cb-85cf-33d6fac3a445}, !- Handle
  {134f23f4-5fbd-4361-96a7-4c4a2117d661}, !- HVAC Component
  {8c72108f-19a0-495c-ad1c-e3bc20d48fd1}; !- Port 1

OS:Sizing:Zone,
  {2601d2d4-454f-41f2-a3d1-1549f145f93c}, !- Handle
  {134f23f4-5fbd-4361-96a7-4c4a2117d661}, !- Zone or ZoneList Name
  SupplyAirTemperature,                   !- Zone Cooling Design Supply Air Temperature Input Method
  14,                                     !- Zone Cooling Design Supply Air Temperature {C}
  11.11,                                  !- Zone Cooling Design Supply Air Temperature Difference {deltaC}
  SupplyAirTemperature,                   !- Zone Heating Design Supply Air Temperature Input Method
  40,                                     !- Zone Heating Design Supply Air Temperature {C}
  11.11,                                  !- Zone Heating Design Supply Air Temperature Difference {deltaC}
  0.0085,                                 !- Zone Cooling Design Supply Air Humidity Ratio {kg-H2O/kg-air}
  0.008,                                  !- Zone Heating Design Supply Air Humidity Ratio {kg-H2O/kg-air}
  ,                                       !- Zone Heating Sizing Factor
  ,                                       !- Zone Cooling Sizing Factor
  DesignDay,                              !- Cooling Design Air Flow Method
  ,                                       !- Cooling Design Air Flow Rate {m3/s}
  ,                                       !- Cooling Minimum Air Flow per Zone Floor Area {m3/s-m2}
  ,                                       !- Cooling Minimum Air Flow {m3/s}
  ,                                       !- Cooling Minimum Air Flow Fraction
  DesignDay,                              !- Heating Design Air Flow Method
  ,                                       !- Heating Design Air Flow Rate {m3/s}
  ,                                       !- Heating Maximum Air Flow per Zone Floor Area {m3/s-m2}
  ,                                       !- Heating Maximum Air Flow {m3/s}
  ,                                       !- Heating Maximum Air Flow Fraction
  No,                                     !- Account for Dedicated Outdoor Air System
  NeutralSupplyAir,                       !- Dedicated Outdoor Air System Control Strategy
  autosize,                               !- Dedicated Outdoor Air Low Setpoint Temperature for Design {C}
  autosize,                               !- Dedicated Outdoor Air High Setpoint Temperature for Design {C}
  Sensible Load Only No Latent Load,      !- Zone Load Sizing Method
  HumidityRatioDifference,                !- Zone Latent Cooling Design Supply Air Humidity Ratio Input Method
  ,                                       !- Zone Dehumidification Design Supply Air Humidity Ratio {kgWater/kgDryAir}
  0.005,                                  !- Zone Cooling Design Supply Air Humidity Ratio Difference {kgWater/kgDryAir}
  HumidityRatioDifference,                !- Zone Latent Heating Design Supply Air Humidity Ratio Input Method
  ,                                       !- Zone Humidification Design Supply Air Humidity Ratio {kgWater/kgDryAir}
  0.005;                                  !- Zone Humidification Design Supply Air Humidity Ratio Difference {kgWater/kgDryAir}

OS:ZoneHVAC:EquipmentList,
  {9f199680-f689-4f3f-9c2e-2d417620d410}, !- Handle
  Zone HVAC Equipment List 1,             !- Name
  {134f23f4-5fbd-4361-96a7-4c4a2117d661}, !- Thermal Zone
  ,                                       !- Load Distribution Scheme
  {8edfea60-f6ab-44ef-a52a-b92d8d31df67}, !- Zone Equipment 1
  1,                                      !- Zone Equipment Cooling Sequence 1
  1,                                      !- Zone Equipment Heating or No-Load Sequence 1
  ,                                       !- Zone Equipment Sequential Cooling Fraction Schedule Name 1
  ;                                       !- Zone Equipment Sequential Heating Fraction Schedule Name 1

OS:SubSurface,
  {0ae3dc1b-2c08-42e1-8761-3c014cab92f2}, !- Handle
  Story 1 Core Space Exterior Wall 1 Window, !- Name
  FixedWindow,                            !- Sub Surface Type
  ,                                       !- Construction Name
  {9e7c2f5d-5403-4e67-ac26-33825bf0b9f0}, !- Surface Name
  ,                                       !- Outside Boundary Condition Object
  ,                                       !- View Factor to Ground
  ,                                       !- Frame and Divider Name
  ,                                       !- Multiplier
  ,                                       !- Number of Vertices
  100, 0.0254, 2.60162725328934,          !- X,Y,Z Vertex 1 {m}
  100, 0.0254, 1,                         !- X,Y,Z Vertex 2 {m}
  100, 49.9746, 1,                        !- X,Y,Z Vertex 3 {m}
  100, 49.9746, 2.60162725328934;         !- X,Y,Z Vertex 4 {m}

OS:SubSurface,
  {3d29a697-3b4c-4e47-ace8-c7da9a7cfd58}, !- Handle
  Story 1 Core Space Exterior Wall 2 Window, !- Name
  FixedWindow,                            !- Sub Surface Type
  ,                                       !- Construction Name
  {0bfeaf8b-0f8f-4f8e-b9a9-482053547dcb}, !- Surface Name
  ,                                       !- Outside Boundary Condition Object
  ,                                       !- View Factor to Ground
  ,                                       !- Frame and Divider Name
  ,                                       !- Multiplier
  ,                                       !- Number of Vertices
  99.9746, 50, 2.60081321311226,          !- X,Y,Z Vertex 1 {m}
  99.9746, 50, 1,                         !- X,Y,Z Vertex 2 {m}
  0.0253999999999905, 50, 1,              !- X,Y,Z Vertex 3 {m}
  0.0253999999999905, 50, 2.60081321311226; !- X,Y,Z Vertex 4 {m}

OS:SubSurface,
  {4d1095a9-955f-4bcb-b9d0-2d0c7d0e18ed}, !- Handle
  Story 1 Core Space Exterior Wall Window, !- Name
  FixedWindow,                            !- Sub Surface Type
  ,                                       !- Construction Name
  {f2a36dcb-9274-45fa-a5d6-b687ca027795}, !- Surface Name
  ,                                       !- Outside Boundary Condition Object
  ,                                       !- View Factor to Ground
  ,                                       !- Frame and Divider Name
  ,                                       !- Multiplier
  ,                                       !- Number of Vertices
  0.0254, 0, 2.60081321311226,            !- X,Y,Z Vertex 1 {m}
  0.0254, 0, 1,                           !- X,Y,Z Vertex 2 {m}
  99.9746, 0, 1,                          !- X,Y,Z Vertex 3 {m}
  99.9746, 0, 2.60081321311226;           !- X,Y,Z Vertex 4 {m}

OS:SubSurface,
  {b21d8a9e-40d8-4b51-ba03-153954625253}, !- Handle
  Story 1 Core Space Exterior Wall 3 Window, !- Name
  FixedWindow,                            !- Sub Surface Type
  ,                                       !- Construction Name
  {e897f4d6-5b37-4712-bdff-bfa3b6e710cc}, !- Surface Name
  ,                                       !- Outside Boundary Condition Object
  ,                                       !- View Factor to Ground
  ,                                       !- Frame and Divider Name
  ,                                       !- Multiplier
  ,                                       !- Number of Vertices
  0, 49.9746, 2.60162725328934,           !- X,Y,Z Vertex 1 {m}
  0, 49.9746, 1,                          !- X,Y,Z Vertex 2 {m}
  0, 0.0254000000000048, 1,               !- X,Y,Z Vertex 3 {m}
  0, 0.0254000000000048, 2.60162725328934; !- X,Y,Z Vertex 4 {m}

OS:Schedule:Ruleset,
  {b4eacad0-5543-40d5-9b4b-2dea59ac8d26}, !- Handle
  Cooling Sch,                            !- Name
  {31b6468d-fabb-4868-839f-5dd2ab4b289f}, !- Schedule Type Limits Name
  {3598566c-c936-43c1-8c17-e50928a43451}; !- Default Day Schedule Name

OS:Schedule:Day,
  {3598566c-c936-43c1-8c17-e50928a43451}, !- Handle
  Cooling Sch Default,                    !- Name
  {31b6468d-fabb-4868-839f-5dd2ab4b289f}, !- Schedule Type Limits Name
  ,                                       !- Interpolate to Timestep
  24,                                     !- Hour 1
  0,                                      !- Minute 1
  26;                                     !- Value Until Time 1

OS:Schedule:Ruleset,
  {9102ac1b-51bb-4b05-9974-5bfc353433e4}, !- Handle
  Heating Sch,                            !- Name
  {31b6468d-fabb-4868-839f-5dd2ab4b289f}, !- Schedule Type Limits Name
  {689790b7-d52c-44e0-823b-bb5c60ba0cf3}; !- Default Day Schedule Name

OS:Schedule:Day,
  {689790b7-d52c-44e0-823b-bb5c60ba0cf3}, !- Handle
  Heating Sch Default,                    !- Name
  {31b6468d-fabb-4868-839f-5dd2ab4b289f}, !- Schedule Type Limits Name
  ,                                       !- Interpolate to Timestep
  24,                                     !- Hour 1
  0,                                      !- Minute 1
  19;                                     !- Value Until Time 1

OS:ThermostatSetpoint:DualSetpoint,
  {d5b731e6-463e-48ea-99c9-fc60a2317219}, !- Handle
  Story 1 Core Thermal Zone ThermostatSetpointDualSetpoint, !- Name
  {9102ac1b-51bb-4b05-9974-5bfc353433e4}, !- Heating Setpoint Temperature Schedule Name
  {b4eacad0-5543-40d5-9b4b-2dea59ac8d26}; !- Cooling Setpoint Temperature Schedule Name

OS:ScheduleTypeLimits,
  {31b6468d-fabb-4868-839f-5dd2ab4b289f}, !- Handle
  Temperature,                            !- Name
  ,                                       !- Lower Limit Value
  ,                                       !- Upper Limit Value
  Continuous,                             !- Numeric Type
  Temperature;                            !- Unit Type

OS:DefaultConstructionSet,
  {95dbbf5a-d8bc-468a-9e34-ece6d41a0a9e}, !- Handle
  ASHRAE_189.1-2009_ClimateZone 4-5 (mdoff)_ConstSet, !- Name
  {0cfaaea0-9dff-4a56-9d51-6eed29167fcb}, !- Default Exterior Surface Constructions Name
  {1999b4e6-0720-49e3-a3b1-a4423da9b9ae}, !- Default Interior Surface Constructions Name
  {f08c036a-23da-4ea3-a7bc-5b4d7fd83739}, !- Default Ground Contact Surface Constructions Name
  {38e6d9be-8639-4bfa-bede-8f026e6ec932}, !- Default Exterior SubSurface Constructions Name
  {53f2104c-bf6d-48c5-8f27-f80fe89d5e02}, !- Default Interior SubSurface Constructions Name
  {e951b5c4-e850-4ce4-a216-811744bb8f98}, !- Interior Partition Construction Name
  ,                                       !- Space Shading Construction Name
  ,                                       !- Building Shading Construction Name
  ,                                       !- Site Shading Construction Name
  ;                                       !- Adiabatic Surface Construction Name

OS:DefaultSurfaceConstructions,
  {0cfaaea0-9dff-4a56-9d51-6eed29167fcb}, !- Handle
  ASHRAE_189.1-2009_ClimateZone 4-5 (mdoff)_Exterior_DefSurfCons, !- Name
  {fbec4ee0-6dc1-4513-825a-433008243fad}, !- Floor Construction Name
  {ba73a294-ac40-4f9f-a221-b6c958b9cb41}, !- Wall Construction Name
  {b71c1938-c188-4b52-90f5-06d51d0ff44f}; !- Roof Ceiling Construction Name

OS:DefaultSurfaceConstructions,
  {1999b4e6-0720-49e3-a3b1-a4423da9b9ae}, !- Handle
  000_Interior_DefSurfCons,               !- Name
  {b7ff19ee-0e40-428a-b7ed-82cb364b8092}, !- Floor Construction Name
  {2f5ffe86-5a87-4aea-b542-c60474863b7d}, !- Wall Construction Name
  {c0158dc0-2d06-410f-a6b6-255efa5f508c}; !- Roof Ceiling Construction Name

OS:DefaultSurfaceConstructions,
  {f08c036a-23da-4ea3-a7bc-5b4d7fd83739}, !- Handle
  000_Ground_DefSurfCons,                 !- Name
  {fbec4ee0-6dc1-4513-825a-433008243fad}, !- Floor Construction Name
  {fbec4ee0-6dc1-4513-825a-433008243fad}, !- Wall Construction Name
  {fbec4ee0-6dc1-4513-825a-433008243fad}; !- Roof Ceiling Construction Name

OS:DefaultSubSurfaceConstructions,
  {38e6d9be-8639-4bfa-bede-8f026e6ec932}, !- Handle
  ASHRAE_189.1-2009_ClimateZone 4-5 (mdoff)_Exterior_DefSubCons, !- Name
  {6a9b033b-1395-48bf-8d17-b507bc50c056}, !- Fixed Window Construction Name
  {6a9b033b-1395-48bf-8d17-b507bc50c056}, !- Operable Window Construction Name
  {734f0159-2532-43dc-8ff1-f826c35068e1}, !- Door Construction Name
  {9ea0b2ec-da82-4aae-bd3d-208585d59429}, !- Glass Door Construction Name
  ,                                       !- Overhead Door Construction Name
  {9ea0b2ec-da82-4aae-bd3d-208585d59429}, !- Skylight Construction Name
  {065dca0c-5287-4427-8fea-0969f960d564}, !- Tubular Daylight Dome Construction Name
  {065dca0c-5287-4427-8fea-0969f960d564}; !- Tubular Daylight Diffuser Construction Name

OS:DefaultSubSurfaceConstructions,
  {53f2104c-bf6d-48c5-8f27-f80fe89d5e02}, !- Handle
  000_Interior_DefSubCons,                !- Name
  {065dca0c-5287-4427-8fea-0969f960d564}, !- Fixed Window Construction Name
  {065dca0c-5287-4427-8fea-0969f960d564}, !- Operable Window Construction Name
  {c548bd90-1825-4d08-880b-d30c4917cfc5}, !- Door Construction Name
  {9ea0b2ec-da82-4aae-bd3d-208585d59429}, !- Glass Door Construction Name
  ,                                       !- Overhead Door Construction Name
  {9ea0b2ec-da82-4aae-bd3d-208585d59429}, !- Skylight Construction Name
  {065dca0c-5287-4427-8fea-0969f960d564}, !- Tubular Daylight Dome Construction Name
  {065dca0c-5287-4427-8fea-0969f960d564}; !- Tubular Daylight Diffuser Construction Name

OS:Construction,
  {e951b5c4-e850-4ce4-a216-811744bb8f98}, !- Handle
  000_Interior Partition,                 !- Name
  ,                                       !- Surface Rendering Name
  {c77add81-f05e-4ee3-801f-86aad3e105e8}; !- Layer 1

OS:Construction,
  {fbec4ee0-6dc1-4513-825a-433008243fad}, !- Handle
  000_ExtSlabCarpet_4in_ClimateZone 1-8,  !- Name
  ,                                       !- Surface Rendering Name
  {607f5118-c45d-4b11-ba69-b485eef32b01}, !- Layer 1
  {27ab4951-8145-4975-bbb0-d25252f36778}; !- Layer 2

OS:Construction,
  {ba73a294-ac40-4f9f-a221-b6c958b9cb41}, !- Handle
  ASHRAE_189.1-2009_ExtWall_SteelFrame_ClimateZone 4-8, !- Name
  ,                                       !- Surface Rendering Name
  {f1ccc932-4266-48e3-a765-9837a5abe7fb}, !- Layer 1
  {73cd6204-d507-498f-8055-8efa103fff63}, !- Layer 2
  {06c4f903-0c30-46cc-9204-831fbbe6f6b7}; !- Layer 3

OS:Construction,
  {b71c1938-c188-4b52-90f5-06d51d0ff44f}, !- Handle
  ASHRAE_189.1-2009_ExtRoof_IEAD_ClimateZone 2-5, !- Name
  ,                                       !- Surface Rendering Name
  {2477f4e0-233b-4f37-969a-15cd7d57dfc6}, !- Layer 1
  {2ff05003-e3a0-4b42-9f30-4554950f088a}, !- Layer 2
  {9901b3a3-89ed-470c-a510-f4a6add2f613}; !- Layer 3

OS:Construction,
  {b7ff19ee-0e40-428a-b7ed-82cb364b8092}, !- Handle
  000_Interior Floor,                     !- Name
  ,                                       !- Surface Rendering Name
  {e7ea4cee-183e-4480-997c-fa6b3f93ffc2}, !- Layer 1
  {9e7ae324-ec74-42fa-b6b5-59aabaf53a14}, !- Layer 2
  {09aac6bc-e089-4d95-a388-cd6933eedaa6}; !- Layer 3

OS:Construction,
  {2f5ffe86-5a87-4aea-b542-c60474863b7d}, !- Handle
  000_Interior Wall,                      !- Name
  ,                                       !- Surface Rendering Name
  {cbae93ba-0d80-4c91-8c5d-eecf69146a71}, !- Layer 1
  {a2177035-2b99-4f9f-85e0-2942895f85d2}, !- Layer 2
  {cbae93ba-0d80-4c91-8c5d-eecf69146a71}; !- Layer 3

OS:Construction,
  {c0158dc0-2d06-410f-a6b6-255efa5f508c}, !- Handle
  000_Interior Ceiling,                   !- Name
  ,                                       !- Surface Rendering Name
  {09aac6bc-e089-4d95-a388-cd6933eedaa6}, !- Layer 1
  {9e7ae324-ec74-42fa-b6b5-59aabaf53a14}, !- Layer 2
  {e7ea4cee-183e-4480-997c-fa6b3f93ffc2}; !- Layer 3

OS:Construction,
  {6a9b033b-1395-48bf-8d17-b507bc50c056}, !- Handle
  ASHRAE_189.1-2009_ExtWindow_ClimateZone 4-5, !- Name
  ,                                       !- Surface Rendering Name
  {2c08992e-c57e-4088-8641-ad70fcc12d59}; !- Layer 1

OS:Construction,
  {734f0159-2532-43dc-8ff1-f826c35068e1}, !- Handle
  000_Exterior Door,                      !- Name
  ,                                       !- Surface Rendering Name
  {175754af-b01e-46d4-a062-b642927be243}, !- Layer 1
  {341a8792-835c-4873-b519-a00d6929def3}; !- Layer 2

OS:Construction,
  {9ea0b2ec-da82-4aae-bd3d-208585d59429}, !- Handle
  000_Exterior Window,                    !- Name
  ,                                       !- Surface Rendering Name
  {cd281406-8a0d-4125-a2ee-056ef296d822}, !- Layer 1
  {76061018-33e6-4d21-8a8a-23de091000bb}, !- Layer 2
  {cd281406-8a0d-4125-a2ee-056ef296d822}; !- Layer 3

OS:Construction,
  {065dca0c-5287-4427-8fea-0969f960d564}, !- Handle
  000_Interior Window,                    !- Name
  ,                                       !- Surface Rendering Name
  {cd281406-8a0d-4125-a2ee-056ef296d822}; !- Layer 1

OS:Construction,
  {c548bd90-1825-4d08-880b-d30c4917cfc5}, !- Handle
  000_Interior Door,                      !- Name
  ,                                       !- Surface Rendering Name
  {c77add81-f05e-4ee3-801f-86aad3e105e8}; !- Layer 1

OS:Material,
  {c77add81-f05e-4ee3-801f-86aad3e105e8}, !- Handle
  000_G05 25mm wood,                      !- Name
  MediumSmooth,                           !- Roughness
  0.025399999999999999,                   !- Thickness {m}
  0.14999999999999999,                    !- Conductivity {W/m-K}
  608,                                    !- Density {kg/m3}
  1630;                                   !- Specific Heat {J/kg-K}

OS:Material,
  {607f5118-c45d-4b11-ba69-b485eef32b01}, !- Handle
  MAT-CC05 4 HW CONCRETE,                 !- Name
  Rough,                                  !- Roughness
  0.1016,                                 !- Thickness {m}
  1.3109999999999999,                     !- Conductivity {W/m-K}
  2240,                                   !- Density {kg/m3}
  836.8,                                  !- Specific Heat {J/kg-K}
  0.90000000000000002,                    !- Thermal Absorptance
  0.69999999999999996,                    !- Solar Absorptance
  0.69999999999999996;                    !- Visible Absorptance

OS:Material:NoMass,
  {27ab4951-8145-4975-bbb0-d25252f36778}, !- Handle
  CP02 CARPET PAD,                        !- Name
  VeryRough,                              !- Roughness
  0.2165,                                 !- Thermal Resistance {m2-K/W}
  0.90000000000000002,                    !- Thermal Absorptance
  0.69999999999999996,                    !- Solar Absorptance
  0.80000000000000004;                    !- Visible Absorptance

OS:Material:NoMass,
  {f1ccc932-4266-48e3-a765-9837a5abe7fb}, !- Handle
  MAT-SHEATH,                             !- Name
  Rough,                                  !- Roughness
  0.36259999999999998,                    !- Thermal Resistance {m2-K/W}
  0.90000000000000002,                    !- Thermal Absorptance
  0.69999999999999996,                    !- Solar Absorptance
  0.69999999999999996;                    !- Visible Absorptance

OS:Material,
  {73cd6204-d507-498f-8055-8efa103fff63}, !- Handle
  Wall Insulation [39],                   !- Name
  MediumRough,                            !- Roughness
  0.11840000000000001,                    !- Thickness {m}
  0.044999999999999998,                   !- Conductivity {W/m-K}
  265,                                    !- Density {kg/m3}
  836.8,                                  !- Specific Heat {J/kg-K}
  0.90000000000000002,                    !- Thermal Absorptance
  0.69999999999999996,                    !- Solar Absorptance
  0.69999999999999996;                    !- Visible Absorptance

OS:Material,
  {06c4f903-0c30-46cc-9204-831fbbe6f6b7}, !- Handle
  1/2IN Gypsum,                           !- Name
  Smooth,                                 !- Roughness
  0.012699999999999999,                   !- Thickness {m}
  0.16,                                   !- Conductivity {W/m-K}
  784.89999999999998,                     !- Density {kg/m3}
  830,                                    !- Specific Heat {J/kg-K}
  0.90000000000000002,                    !- Thermal Absorptance
  0.92000000000000004,                    !- Solar Absorptance
  0.92000000000000004;                    !- Visible Absorptance

OS:Material,
  {2477f4e0-233b-4f37-969a-15cd7d57dfc6}, !- Handle
  Roof Membrane,                          !- Name
  VeryRough,                              !- Roughness
  0.0094999999999999998,                  !- Thickness {m}
  0.16,                                   !- Conductivity {W/m-K}
  1121.29,                                !- Density {kg/m3}
  1460,                                   !- Specific Heat {J/kg-K}
  0.90000000000000002,                    !- Thermal Absorptance
  0.69999999999999996,                    !- Solar Absorptance