
OS:Version,
  {c49f0cff-de7c-4d77-84fc-77ce987b2ad0}, !- Handle
  3.0.0;                                  !- Version Identifier

OS:BuildingStory,
  {5e4bf449-1d74-4651-a956-569511c77319}, !- Handle
  Story 1,                                !- Name
  0,                                      !- Nominal Z Coordinate {m}
  4,                                      !- Nominal Floor to Floor Height {m}
  ,                                       !- Default Construction Set Name
  ,                                       !- Default Schedule Set Name
  ;                                       !- Group Rendering Name

OS:Space,
  {a34404cc-497e-4d00-ad18-f1d3b8bf3f9f}, !- Handle
  Story 1 Core Space,                     !- Name
  ,                                       !- Space Type Name
  ,                                       !- Default Construction Set Name
  ,                                       !- Default Schedule Set Name
  -0,                                     !- Direction of Relative North {deg}
  0,                                      !- X Origin {m}
  0,                                      !- Y Origin {m}
  0,                                      !- Z Origin {m}
  {5e4bf449-1d74-4651-a956-569511c77319}, !- Building Story Name
  {0fa2de44-a98d-4f07-b349-66a21440a979}; !- Thermal Zone Name

OS:Surface,
  {42dd22fc-b496-4cc5-b019-4d1aa574802e}, !- Handle
  Surface 1,                              !- Name
  Floor,                                  !- Surface Type
  ,                                       !- Construction Name
  {a34404cc-497e-4d00-ad18-f1d3b8bf3f9f}, !- Space Name
  Ground,                                 !- Outside Boundary Condition
  ,                                       !- Outside Boundary Condition Object
  NoSun,                                  !- Sun Exposure
  NoWind,                                 !- Wind Exposure
  ,                                       !- View Factor to Ground
  ,                                       !- Number of Vertices
  0, 0, 0,                                !- X,Y,Z Vertex 1 {m}
  0, 50, 0,                               !- X,Y,Z Vertex 2 {m}
  100, 50, 0,                             !- X,Y,Z Vertex 3 {m}
  100, 0, 0;                              !- X,Y,Z Vertex 4 {m}

OS:Surface,
  {085d1c04-e919-4879-b417-082c3f5da39a}, !- Handle
  Surface 2,                              !- Name
  Wall,                                   !- Surface Type
  ,                                       !- Construction Name
  {a34404cc-497e-4d00-ad18-f1d3b8bf3f9f}, !- Space Name
  Outdoors,                               !- Outside Boundary Condition
  ,                                       !- Outside Boundary Condition Object
  SunExposed,                             !- Sun Exposure
  WindExposed,                            !- Wind Exposure
  ,                                       !- View Factor to Ground
  ,                                       !- Number of Vertices
  0, 50, 4,                               !- X,Y,Z Vertex 1 {m}
  0, 50, 0,                               !- X,Y,Z Vertex 2 {m}
  0, 0, 0,                                !- X,Y,Z Vertex 3 {m}
  0, 0, 4;                                !- X,Y,Z Vertex 4 {m}

OS:Surface,
  {dbc63eb9-c85f-42a4-a409-c2d3c1d602d0}, !- Handle
  Surface 3,                              !- Name
  Wall,                                   !- Surface Type
  ,                                       !- Construction Name
  {a34404cc-497e-4d00-ad18-f1d3b8bf3f9f}, !- Space Name
  Outdoors,                               !- Outside Boundary Condition
  ,                                       !- Outside Boundary Condition Object
  SunExposed,                             !- Sun Exposure
  WindExposed,                            !- Wind Exposure
  ,                                       !- View Factor to Ground
  ,                                       !- Number of Vertices
  100, 50, 4,                             !- X,Y,Z Vertex 1 {m}
  100, 50, 0,                             !- X,Y,Z Vertex 2 {m}
  0, 50, 0,                               !- X,Y,Z Vertex 3 {m}
  0, 50, 4;                               !- X,Y,Z Vertex 4 {m}

OS:Surface,
  {7806089f-1643-4022-8b9e-3f2abc8764d1}, !- Handle
  Surface 4,                              !- Name
  Wall,                                   !- Surface Type
  ,                                       !- Construction Name
  {a34404cc-497e-4d00-ad18-f1d3b8bf3f9f}, !- Space Name
  Outdoors,                               !- Outside Boundary Condition
  ,                                       !- Outside Boundary Condition Object
  SunExposed,                             !- Sun Exposure
  WindExposed,                            !- Wind Exposure
  ,                                       !- View Factor to Ground
  ,                                       !- Number of Vertices
  100, 0, 4,                              !- X,Y,Z Vertex 1 {m}
  100, 0, 0,                              !- X,Y,Z Vertex 2 {m}
  100, 50, 0,                             !- X,Y,Z Vertex 3 {m}
  100, 50, 4;                             !- X,Y,Z Vertex 4 {m}

OS:Surface,
  {b0d70f8f-b8d8-4afc-ade2-8c01a8ef4a14}, !- Handle
  Surface 5,                              !- Name
  Wall,                                   !- Surface Type
  ,                                       !- Construction Name
  {a34404cc-497e-4d00-ad18-f1d3b8bf3f9f}, !- Space Name
  Outdoors,                               !- Outside Boundary Condition
  ,                                       !- Outside Boundary Condition Object
  SunExposed,                             !- Sun Exposure
  WindExposed,                            !- Wind Exposure
  ,                                       !- View Factor to Ground
  ,                                       !- Number of Vertices
  0, 0, 4,                                !- X,Y,Z Vertex 1 {m}
  0, 0, 0,                                !- X,Y,Z Vertex 2 {m}
  100, 0, 0,                              !- X,Y,Z Vertex 3 {m}
  100, 0, 4;                              !- X,Y,Z Vertex 4 {m}

OS:Surface,
  {7d61cae7-5ae4-42b5-8121-a19245c636c5}, !- Handle
  Surface 6,                              !- Name
  RoofCeiling,                            !- Surface Type
  ,                                       !- Construction Name
  {a34404cc-497e-4d00-ad18-f1d3b8bf3f9f}, !- Space Name
  Outdoors,                               !- Outside Boundary Condition
  ,                                       !- Outside Boundary Condition Object
  SunExposed,                             !- Sun Exposure
  WindExposed,                            !- Wind Exposure
  ,                                       !- View Factor to Ground
  ,                                       !- Number of Vertices
  100, 0, 4,                              !- X,Y,Z Vertex 1 {m}
  100, 50, 4,                             !- X,Y,Z Vertex 2 {m}
  0, 50, 4,                               !- X,Y,Z Vertex 3 {m}
  0, 0, 4;                                !- X,Y,Z Vertex 4 {m}

OS:ThermalZone,
  {0fa2de44-a98d-4f07-b349-66a21440a979}, !- Handle
  Story 1 Core Thermal Zone,              !- Name
  ,                                       !- Multiplier
  ,                                       !- Ceiling Height {m}
  ,                                       !- Volume {m3}
  ,                                       !- Floor Area {m2}
  ,                                       !- Zone Inside Convection Algorithm
  ,                                       !- Zone Outside Convection Algorithm
  ,                                       !- Zone Conditioning Equipment List Name
  {b8ba671b-5d5e-4a15-9624-7b0be2bedc53}, !- Zone Air Inlet Port List
  {22846017-c3ff-446c-b81a-51bd41b9e384}, !- Zone Air Exhaust Port List
  {dda31752-c617-4825-8422-d5ffa3048abd}, !- Zone Air Node Name
  {4ac8cff8-f4e4-4a84-8668-087e830829cd}, !- Zone Return Air Port List
  ,                                       !- Primary Daylighting Control Name
  ,                                       !- Fraction of Zone Controlled by Primary Daylighting Control
  ,                                       !- Secondary Daylighting Control Name
  ,                                       !- Fraction of Zone Controlled by Secondary Daylighting Control
  ,                                       !- Illuminance Map Name
  ,                                       !- Group Rendering Name
  {cc7bc24e-0f88-4eaf-8f62-2a1f98b8e081}, !- Thermostat Name
  No;                                     !- Use Ideal Air Loads

OS:Node,
  {bf899a43-3ea6-4a30-8041-0eff48162cd5}, !- Handle
  Story 1 Core Thermal Zone Zone Air Node, !- Name
  {dda31752-c617-4825-8422-d5ffa3048abd}, !- Inlet Port
  ;                                       !- Outlet Port

OS:Connection,
  {dda31752-c617-4825-8422-d5ffa3048abd}, !- Handle
  {baf3d301-81c6-4646-ae09-6f5030e860de}, !- Name
  {0fa2de44-a98d-4f07-b349-66a21440a979}, !- Source Object
  11,                                     !- Outlet Port
  {bf899a43-3ea6-4a30-8041-0eff48162cd5}, !- Target Object
  2;                                      !- Inlet Port

OS:PortList,
  {b8ba671b-5d5e-4a15-9624-7b0be2bedc53}, !- Handle
  {bc500f47-4622-4897-99bd-80d545355cad}, !- Name
  {0fa2de44-a98d-4f07-b349-66a21440a979}, !- HVAC Component
  {a8772498-f080-4ced-b11b-f807aa1a2c82}; !- Port 1

OS:PortList,
  {22846017-c3ff-446c-b81a-51bd41b9e384}, !- Handle
  {7a2747e2-1d7c-4e3f-837e-aefcb4d65a09}, !- Name
  {0fa2de44-a98d-4f07-b349-66a21440a979}; !- HVAC Component

OS:PortList,
  {4ac8cff8-f4e4-4a84-8668-087e830829cd}, !- Handle
  {6b51ca36-fcfc-4181-81c2-2f9bba91a16e}, !- Name
  {0fa2de44-a98d-4f07-b349-66a21440a979}, !- HVAC Component
  {0e9975bf-f20f-4aee-ac86-ecb12b26fe5a}; !- Port 1

OS:Sizing:Zone,
  {48898310-e1d8-4aa6-8836-a128c6cf403f}, !- Handle
  {0fa2de44-a98d-4f07-b349-66a21440a979}, !- Zone or ZoneList Name
  SupplyAirTemperature,                   !- Zone Cooling Design Supply Air Temperature Input Method
  14,                                     !- Zone Cooling Design Supply Air Temperature {C}
  11.11,                                  !- Zone Cooling Design Supply Air Temperature Difference {deltaC}
  SupplyAirTemperature,                   !- Zone Heating Design Supply Air Temperature Input Method
  40,                                     !- Zone Heating Design Supply Air Temperature {C}
  11.11,                                  !- Zone Heating Design Supply Air Temperature Difference {deltaC}
  0.0085,                                 !- Zone Cooling Design Supply Air Humidity Ratio {kg-H2O/kg-air}
  0.008,                                  !- Zone Heating Design Supply Air Humidity Ratio {kg-H2O/kg-air}
  ,                                       !- Zone Heating Sizing Factor
  ,                                       !- Zone Cooling Sizing Factor
  DesignDay,                              !- Cooling Design Air Flow Method
  ,                                       !- Cooling Design Air Flow Rate {m3/s}
  ,                                       !- Cooling Minimum Air Flow per Zone Floor Area {m3/s-m2}
  ,                                       !- Cooling Minimum Air Flow {m3/s}
  ,                                       !- Cooling Minimum Air Flow Fraction
  DesignDay,                              !- Heating Design Air Flow Method
  ,                                       !- Heating Design Air Flow Rate {m3/s}
  ,                                       !- Heating Maximum Air Flow per Zone Floor Area {m3/s-m2}
  ,                                       !- Heating Maximum Air Flow {m3/s}
  ,                                       !- Heating Maximum Air Flow Fraction
  No,                                     !- Account for Dedicated Outdoor Air System
  NeutralSupplyAir,                       !- Dedicated Outdoor Air System Control Strategy
  autosize,                               !- Dedicated Outdoor Air Low Setpoint Temperature for Design {C}
  autosize;                               !- Dedicated Outdoor Air High Setpoint Temperature for Design {C}

OS:ZoneHVAC:EquipmentList,
  {e38238ff-ad5d-4ea0-9601-136d9a602dcf}, !- Handle
  Zone HVAC Equipment List 1,             !- Name
  {0fa2de44-a98d-4f07-b349-66a21440a979}, !- Thermal Zone
  ,                                       !- Load Distribution Scheme
  {b84fe72f-2145-44b6-9311-4f720330fdb1}, !- Zone Equipment 1
  1,                                      !- Zone Equipment Cooling Sequence 1
  1,                                      !- Zone Equipment Heating or No-Load Sequence 1
  ,                                       !- Zone Equipment Sequential Cooling Fraction Schedule Name 1
  ;                                       !- Zone Equipment Sequential Heating Fraction Schedule Name 1

OS:SubSurface,
  {276d5a58-5d45-4b7b-998d-e4d989bbc015}, !- Handle
  Sub Surface 1,                          !- Name
  FixedWindow,                            !- Sub Surface Type
  ,                                       !- Construction Name
  {b0d70f8f-b8d8-4afc-ade2-8c01a8ef4a14}, !- Surface Name
  ,                                       !- Outside Boundary Condition Object
  ,                                       !- View Factor to Ground
  ,                                       !- Shading Control Name
  ,                                       !- Frame and Divider Name
  ,                                       !- Multiplier
  ,                                       !- Number of Vertices
  0.0254, 0, 2.60081321311226,            !- X,Y,Z Vertex 1 {m}
  0.0254, 0, 1,                           !- X,Y,Z Vertex 2 {m}
  99.9746, 0, 1,                          !- X,Y,Z Vertex 3 {m}
  99.9746, 0, 2.60081321311226;           !- X,Y,Z Vertex 4 {m}

OS:SubSurface,
  {58092e28-7e88-484a-98e2-87fff84a0a85}, !- Handle
  Sub Surface 2,                          !- Name
  FixedWindow,                            !- Sub Surface Type
  ,                                       !- Construction Name
  {7806089f-1643-4022-8b9e-3f2abc8764d1}, !- Surface Name
  ,                                       !- Outside Boundary Condition Object
  ,                                       !- View Factor to Ground
  ,                                       !- Shading Control Name
  ,                                       !- Frame and Divider Name
  ,                                       !- Multiplier
  ,                                       !- Number of Vertices
  100, 0.0254, 2.60162725328934,          !- X,Y,Z Vertex 1 {m}
  100, 0.0254, 1,                         !- X,Y,Z Vertex 2 {m}
  100, 49.9746, 1,                        !- X,Y,Z Vertex 3 {m}
  100, 49.9746, 2.60162725328934;         !- X,Y,Z Vertex 4 {m}

OS:SubSurface,
  {97a8c12e-3290-4e94-aa95-8df2379a9e9f}, !- Handle
  Sub Surface 3,                          !- Name
  FixedWindow,                            !- Sub Surface Type
  ,                                       !- Construction Name
  {dbc63eb9-c85f-42a4-a409-c2d3c1d602d0}, !- Surface Name
  ,                                       !- Outside Boundary Condition Object
  ,                                       !- View Factor to Ground
  ,                                       !- Shading Control Name
  ,                                       !- Frame and Divider Name
  ,                                       !- Multiplier
  ,                                       !- Number of Vertices
  99.9746, 50, 2.60081321311226,          !- X,Y,Z Vertex 1 {m}
  99.9746, 50, 1,                         !- X,Y,Z Vertex 2 {m}
  0.0253999999999905, 50, 1,              !- X,Y,Z Vertex 3 {m}
  0.0253999999999905, 50, 2.60081321311226; !- X,Y,Z Vertex 4 {m}

OS:SubSurface,
  {2e169093-58ee-4b55-8b72-3c29d68c884b}, !- Handle
  Sub Surface 4,                          !- Name
  FixedWindow,                            !- Sub Surface Type
  ,                                       !- Construction Name
  {085d1c04-e919-4879-b417-082c3f5da39a}, !- Surface Name
  ,                                       !- Outside Boundary Condition Object
  ,                                       !- View Factor to Ground
  ,                                       !- Shading Control Name
  ,                                       !- Frame and Divider Name
  ,                                       !- Multiplier
  ,                                       !- Number of Vertices
  0, 49.9746, 2.60162725328934,           !- X,Y,Z Vertex 1 {m}
  0, 49.9746, 1,                          !- X,Y,Z Vertex 2 {m}
  0, 0.0254000000000048, 1,               !- X,Y,Z Vertex 3 {m}
  0, 0.0254000000000048, 2.60162725328934; !- X,Y,Z Vertex 4 {m}

OS:Schedule:Ruleset,
  {471090d8-a8c9-4680-aa57-5ea77a28c75d}, !- Handle
  Cooling Sch,                            !- Name
  {dccc2f1b-dbda-4a00-8026-6e206fee870b}, !- Schedule Type Limits Name
  {40eabd3b-59df-4663-8672-aa1e6041b7a5}; !- Default Day Schedule Name

OS:Schedule:Day,
  {40eabd3b-59df-4663-8672-aa1e6041b7a5}, !- Handle
  Cooling Sch Default,                    !- Name
  {dccc2f1b-dbda-4a00-8026-6e206fee870b}, !- Schedule Type Limits Name
  ,                                       !- Interpolate to Timestep
  24,                                     !- Hour 1
  0,                                      !- Minute 1
  26;                                     !- Value Until Time 1

OS:Schedule:Ruleset,
  {5359b3b9-1154-4d33-bde3-a19c621fddcb}, !- Handle
  Heating Sch,                            !- Name
  {dccc2f1b-dbda-4a00-8026-6e206fee870b}, !- Schedule Type Limits Name
  {e52c7ee0-a302-42c1-8430-d1932b38605c}; !- Default Day Schedule Name

OS:Schedule:Day,
  {e52c7ee0-a302-42c1-8430-d1932b38605c}, !- Handle
  Heating Sch Default,                    !- Name
  {dccc2f1b-dbda-4a00-8026-6e206fee870b}, !- Schedule Type Limits Name
  ,                                       !- Interpolate to Timestep
  24,                                     !- Hour 1
  0,                                      !- Minute 1
  19;                                     !- Value Until Time 1

OS:ThermostatSetpoint:DualSetpoint,
  {cc7bc24e-0f88-4eaf-8f62-2a1f98b8e081}, !- Handle
  Story 1 Core Thermal Zone ThermostatSetpointDualSetpoint, !- Name
  {5359b3b9-1154-4d33-bde3-a19c621fddcb}, !- Heating Setpoint Temperature Schedule Name
  {471090d8-a8c9-4680-aa57-5ea77a28c75d}; !- Cooling Setpoint Temperature Schedule Name

OS:ScheduleTypeLimits,
  {dccc2f1b-dbda-4a00-8026-6e206fee870b}, !- Handle
  Temperature,                            !- Name
  ,                                       !- Lower Limit Value
  ,                                       !- Upper Limit Value
  Continuous,                             !- Numeric Type
  Temperature;                            !- Unit Type

OS:DefaultConstructionSet,
  {2216ae3e-9f81-46a9-8d02-5466c6d935d6}, !- Handle
  ASHRAE_189.1-2009_ClimateZone 4-5 (mdoff)_ConstSet, !- Name
  {17e33af8-1de1-4fcb-80c9-20dbe6808212}, !- Default Exterior Surface Constructions Name
  {b12ddd9c-5d22-42e3-880b-a0dd2ac2b131}, !- Default Interior Surface Constructions Name
  {aa22abc4-a373-4422-9424-512f62fe65d5}, !- Default Ground Contact Surface Constructions Name
  {efc8db07-ed58-4754-97af-703137f95de3}, !- Default Exterior SubSurface Constructions Name
  {bcd987ef-e703-4454-a022-570302ce993c}, !- Default Interior SubSurface Constructions Name
  {41c89638-65f4-4958-94bd-506abc9b866f}, !- Interior Partition Construction Name
  ,                                       !- Space Shading Construction Name
  ,                                       !- Building Shading Construction Name
  ,                                       !- Site Shading Construction Name
  ;                                       !- Adiabatic Surface Construction Name

OS:DefaultSurfaceConstructions,
  {17e33af8-1de1-4fcb-80c9-20dbe6808212}, !- Handle
  ASHRAE_189.1-2009_ClimateZone 4-5 (mdoff)_Exterior_DefSurfCons, !- Name
  {7632af71-0ba8-420c-93d4-50318fa5c3ae}, !- Floor Construction Name
  {479d9cd2-fd40-4d07-a7d9-44b73510e235}, !- Wall Construction Name
  {50437dae-a1e6-4fdf-a67b-14f4556c72e6}; !- Roof Ceiling Construction Name

OS:DefaultSurfaceConstructions,
  {b12ddd9c-5d22-42e3-880b-a0dd2ac2b131}, !- Handle
  000_Interior_DefSurfCons,               !- Name
  {926afcbd-54a5-4408-a2cf-48f69ff44a5a}, !- Floor Construction Name
  {242c4fbe-38ff-443e-8c49-f816d0466c6c}, !- Wall Construction Name
  {0beb5789-6e34-4775-a234-1c52b2d3d387}; !- Roof Ceiling Construction Name

OS:DefaultSurfaceConstructions,
  {aa22abc4-a373-4422-9424-512f62fe65d5}, !- Handle
  000_Ground_DefSurfCons,                 !- Name
  {7632af71-0ba8-420c-93d4-50318fa5c3ae}, !- Floor Construction Name
  {7632af71-0ba8-420c-93d4-50318fa5c3ae}, !- Wall Construction Name
  {7632af71-0ba8-420c-93d4-50318fa5c3ae}; !- Roof Ceiling Construction Name

OS:DefaultSubSurfaceConstructions,
  {efc8db07-ed58-4754-97af-703137f95de3}, !- Handle
  ASHRAE_189.1-2009_ClimateZone 4-5 (mdoff)_Exterior_DefSubCons, !- Name
  {4319a680-4db5-4ea0-94e1-c43b37da4435}, !- Fixed Window Construction Name
  {4319a680-4db5-4ea0-94e1-c43b37da4435}, !- Operable Window Construction Name
  {3f0a78eb-fd1a-47c8-b2df-957c2615670b}, !- Door Construction Name
  {b8de310c-958f-4e20-ba4e-0dcabbf8d86f}, !- Glass Door Construction Name
  ,                                       !- Overhead Door Construction Name
  {b8de310c-958f-4e20-ba4e-0dcabbf8d86f}, !- Skylight Construction Name
  {5bdb24dd-a303-4c3a-a3a3-b02662c43674}, !- Tubular Daylight Dome Construction Name
  {5bdb24dd-a303-4c3a-a3a3-b02662c43674}; !- Tubular Daylight Diffuser Construction Name

OS:DefaultSubSurfaceConstructions,
  {bcd987ef-e703-4454-a022-570302ce993c}, !- Handle
  000_Interior_DefSubCons,                !- Name
  {5bdb24dd-a303-4c3a-a3a3-b02662c43674}, !- Fixed Window Construction Name
  {5bdb24dd-a303-4c3a-a3a3-b02662c43674}, !- Operable Window Construction Name
  {ef961f7c-2fd1-49b4-9875-1a0bac0cca25}, !- Door Construction Name
  {b8de310c-958f-4e20-ba4e-0dcabbf8d86f}, !- Glass Door Construction Name
  ,                                       !- Overhead Door Construction Name
  {b8de310c-958f-4e20-ba4e-0dcabbf8d86f}, !- Skylight Construction Name
  {5bdb24dd-a303-4c3a-a3a3-b02662c43674}, !- Tubular Daylight Dome Construction Name
  {5bdb24dd-a303-4c3a-a3a3-b02662c43674}; !- Tubular Daylight Diffuser Construction Name

OS:Construction,
  {41c89638-65f4-4958-94bd-506abc9b866f}, !- Handle
  000_Interior Partition,                 !- Name
  ,                                       !- Surface Rendering Name
  {bf4c0e20-f25c-43e6-850f-3191c91bf269}; !- Layer 1

OS:Construction,
  {7632af71-0ba8-420c-93d4-50318fa5c3ae}, !- Handle
  000_ExtSlabCarpet_4in_ClimateZone 1-8,  !- Name
  ,                                       !- Surface Rendering Name
  {83d087d1-7b15-4f62-9459-3afca3235312}, !- Layer 1
  {33653122-cd5c-47fc-8ea7-9bce3dfbead4}; !- Layer 2

OS:Construction,
  {479d9cd2-fd40-4d07-a7d9-44b73510e235}, !- Handle
  ASHRAE_189.1-2009_ExtWall_SteelFrame_ClimateZone 4-8, !- Name
  ,                                       !- Surface Rendering Name
  {19182079-e8f7-4bc3-a72f-5df69818c911}, !- Layer 1
  {2aa35dbd-f514-4d3e-8f1b-aad3960da71d}, !- Layer 2
  {3161d3f1-7422-4629-a0e9-618650796783}; !- Layer 3

OS:Construction,
  {50437dae-a1e6-4fdf-a67b-14f4556c72e6}, !- Handle
  ASHRAE_189.1-2009_ExtRoof_IEAD_ClimateZone 2-5, !- Name
  ,                                       !- Surface Rendering Name
  {47bb58bd-b64c-45d5-95da-e87d0d284566}, !- Layer 1
  {62a972b0-a522-4d20-95ae-2841593d09af}, !- Layer 2
  {a532c799-e3db-444c-bd78-b5476f224197}; !- Layer 3

OS:Construction,
  {926afcbd-54a5-4408-a2cf-48f69ff44a5a}, !- Handle
  000_Interior Floor,                     !- Name
  ,                                       !- Surface Rendering Name
  {a03b4220-aea6-469f-a383-ce2259780ce3}, !- Layer 1
  {ae6456e0-4c89-41d4-aa5b-b252cc0a8ec3}, !- Layer 2
  {3abf1aae-c043-4e51-813a-eb3beb02aaed}; !- Layer 3

OS:Construction,
  {242c4fbe-38ff-443e-8c49-f816d0466c6c}, !- Handle
  000_Interior Wall,                      !- Name
  ,                                       !- Surface Rendering Name
  {d0144e2e-836a-40a8-bb66-ef560db18b6d}, !- Layer 1
  {77b662b8-2962-4168-92f7-c5153de7be8a}, !- Layer 2
  {d0144e2e-836a-40a8-bb66-ef560db18b6d}; !- Layer 3

OS:Construction,
  {0beb5789-6e34-4775-a234-1c52b2d3d387}, !- Handle
  000_Interior Ceiling,                   !- Name
  ,                                       !- Surface Rendering Name
  {3abf1aae-c043-4e51-813a-eb3beb02aaed}, !- Layer 1
  {ae6456e0-4c89-41d4-aa5b-b252cc0a8ec3}, !- Layer 2
  {a03b4220-aea6-469f-a383-ce2259780ce3}; !- Layer 3

OS:Construction,
  {4319a680-4db5-4ea0-94e1-c43b37da4435}, !- Handle
  ASHRAE_189.1-2009_ExtWindow_ClimateZone 4-5, !- Name
  ,                                       !- Surface Rendering Name
  {e5a86bf9-d14b-4215-bfc9-dea51af2a2a1}; !- Layer 1

OS:Construction,
  {3f0a78eb-fd1a-47c8-b2df-957c2615670b}, !- Handle
  000_Exterior Door,                      !- Name
  ,                                       !- Surface Rendering Name
  {44da622d-96a7-493a-98b4-f5bc0b2c30e2}, !- Layer 1
  {574f7a16-c25a-49cb-81db-7b35657e8002}; !- Layer 2

OS:Construction,
  {b8de310c-958f-4e20-ba4e-0dcabbf8d86f}, !- Handle
  000_Exterior Window,                    !- Name
  ,                                       !- Surface Rendering Name
  {aa293cb1-d134-4e10-8e24-4daf695f82f3}, !- Layer 1
  {e6e7dbc6-2faf-486d-8c72-c55f845f4c5d}, !- Layer 2
  {aa293cb1-d134-4e10-8e24-4daf695f82f3}; !- Layer 3

OS:Construction,
  {5bdb24dd-a303-4c3a-a3a3-b02662c43674}, !- Handle
  000_Interior Window,                    !- Name
  ,                                       !- Surface Rendering Name
  {aa293cb1-d134-4e10-8e24-4daf695f82f3}; !- Layer 1

OS:Construction,
  {ef961f7c-2fd1-49b4-9875-1a0bac0cca25}, !- Handle
  000_Interior Door,                      !- Name
  ,                                       !- Surface Rendering Name
  {bf4c0e20-f25c-43e6-850f-3191c91bf269}; !- Layer 1

OS:Material,
  {bf4c0e20-f25c-43e6-850f-3191c91bf269}, !- Handle
  000_G05 25mm wood,                      !- Name
  MediumSmooth,                           !- Roughness
  0.025399999999999999,                   !- Thickness {m}
  0.14999999999999999,                    !- Conductivity {W/m-K}
  608,                                    !- Density {kg/m3}
  1630;                                   !- Specific Heat {J/kg-K}

OS:Material,
  {83d087d1-7b15-4f62-9459-3afca3235312}, !- Handle
  MAT-CC05 4 HW CONCRETE,                 !- Name
  Rough,                                  !- Roughness
  0.1016,                                 !- Thickness {m}
  1.3109999999999999,                     !- Conductivity {W/m-K}
  2240,                                   !- Density {kg/m3}
  836.8,                                  !- Specific Heat {J/kg-K}
  0.90000000000000002,                    !- Thermal Absorptance
  0.69999999999999996,                    !- Solar Absorptance
  0.69999999999999996;                    !- Visible Absorptance

OS:Material:NoMass,
  {33653122-cd5c-47fc-8ea7-9bce3dfbead4}, !- Handle
  CP02 CARPET PAD,                        !- Name
  VeryRough,                              !- Roughness
  0.2165,                                 !- Thermal Resistance
  0.90000000000000002,                    !- Thermal Absorptance
  0.69999999999999996,                    !- Solar Absorptance
  0.80000000000000004;                    !- Visible Absorptance

OS:Material:NoMass,
  {19182079-e8f7-4bc3-a72f-5df69818c911}, !- Handle
  MAT-SHEATH,                             !- Name
  Rough,                                  !- Roughness
  0.36259999999999998,                    !- Thermal Resistance
  0.90000000000000002,                    !- Thermal Absorptance
  0.69999999999999996,                    !- Solar Absorptance
  0.69999999999999996;                    !- Visible Absorptance

OS:Material,
  {2aa35dbd-f514-4d3e-8f1b-aad3960da71d}, !- Handle
  Wall Insulation [39],                   !- Name
  MediumRough,                            !- Roughness
  0.11840000000000001,                    !- Thickness {m}
  0.044999999999999998,                   !- Conductivity {W/m-K}
  265,                                    !- Density {kg/m3}
  836.8,                                  !- Specific Heat {J/kg-K}
  0.90000000000000002,                    !- Thermal Absorptance
  0.69999999999999996,                    !- Solar Absorptance
  0.69999999999999996;                    !- Visible Absorptance

OS:Material,
  {3161d3f1-7422-4629-a0e9-618650796783}, !- Handle
  1/2IN Gypsum,                           !- Name
  Smooth,                                 !- Roughness
  0.012699999999999999,                   !- Thickness {m}
  0.16,                                   !- Conductivity {W/m-K}
  784.89999999999998,                     !- Density {kg/m3}
  830,                                    !- Specific Heat {J/kg-K}
  0.90000000000000002,                    !- Thermal Absorptance
  0.92000000000000004,                    !- Solar Absorptance
  0.92000000000000004;                    !- Visible Absorptance

OS:Material,
  {47bb58bd-b64c-45d5-95da-e87d0d284566}, !- Handle
  Roof Membrane,                          !- Name
  VeryRough,                              !- Roughness
  0.0094999999999999998,                  !- Thickness {m}
  0.16,                                   !- Conductivity {W/m-K}
  1121.29,                                !- Density {kg/m3}
  1460,                                   !- Specific Heat {J/kg-K}
  0.90000000000000002,                    !- Thermal Absorptance
  0.69999999999999996,                    !- Solar Absorptance
  0.69999999999999996;                    !- Visible Absorptance

OS:Material,
  {62a972b0-a522-4d20-95ae-2841593d09af}, !- Handle
  Roof Insulation [21],                   !- Name
  MediumRough,                            !- Roughness
  0.21049999999999999,                    !- Thickness {m}
  0.049000000000000002,                   !- Conductivity {W/m-K}