
OS:Version,
  {c581f73d-c8c2-40b8-8797-b50f9a2be20b}, !- Handle
  3.5.0;                                  !- Version Identifier

OS:BuildingStory,
  {ae22eb00-299c-46cc-9663-627594453f5d}, !- Handle
  Story 1,                                !- Name
  0,                                      !- Nominal Z Coordinate {m}
  4,                                      !- Nominal Floor to Floor Height {m}
  ,                                       !- Default Construction Set Name
  ,                                       !- Default Schedule Set Name
  ;                                       !- Group Rendering Name

OS:Space,
  {154fa0cb-9854-4d95-969a-37a522faa50b}, !- Handle
  Story 1 Core Space,                     !- Name
  ,                                       !- Space Type Name
  ,                                       !- Default Construction Set Name
  ,                                       !- Default Schedule Set Name
  -0,                                     !- Direction of Relative North {deg}
  0,                                      !- X Origin {m}
  0,                                      !- Y Origin {m}
  0,                                      !- Z Origin {m}
  {ae22eb00-299c-46cc-9663-627594453f5d}, !- Building Story Name
  {172d9733-520c-480e-8bfa-4d051334edcb}; !- Thermal Zone Name

OS:Surface,
  {f0156d02-87bc-4990-bf4d-d3004adedeea}, !- Handle
  Story 1 Core Space Exterior Ground Floor, !- Name
  Floor,                                  !- Surface Type
  ,                                       !- Construction Name
  {154fa0cb-9854-4d95-969a-37a522faa50b}, !- Space Name
  Ground,                                 !- Outside Boundary Condition
  ,                                       !- Outside Boundary Condition Object
  NoSun,                                  !- Sun Exposure
  NoWind,                                 !- Wind Exposure
  ,                                       !- View Factor to Ground
  ,                                       !- Number of Vertices
  0, 0, 0,                                !- X,Y,Z Vertex 1 {m}
  0, 50, 0,                               !- X,Y,Z Vertex 2 {m}
  100, 50, 0,                             !- X,Y,Z Vertex 3 {m}
  100, 0, 0;                              !- X,Y,Z Vertex 4 {m}

OS:Surface,
  {0694d6b9-fd8c-464f-9f89-84c1ac40dffb}, !- Handle
  Story 1 Core Space Exterior Wall 3,     !- Name
  Wall,                                   !- Surface Type
  ,                                       !- Construction Name
  {154fa0cb-9854-4d95-969a-37a522faa50b}, !- Space Name
  Outdoors,                               !- Outside Boundary Condition
  ,                                       !- Outside Boundary Condition Object
  SunExposed,                             !- Sun Exposure
  WindExposed,                            !- Wind Exposure
  ,                                       !- View Factor to Ground
  ,                                       !- Number of Vertices
  0, 50, 4,                               !- X,Y,Z Vertex 1 {m}
  0, 50, 0,                               !- X,Y,Z Vertex 2 {m}
  0, 0, 0,                                !- X,Y,Z Vertex 3 {m}
  0, 0, 4;                                !- X,Y,Z Vertex 4 {m}

OS:Surface,
  {79434785-9335-4eaf-94bc-85831d21e1e9}, !- Handle
  Story 1 Core Space Exterior Wall 2,     !- Name
  Wall,                                   !- Surface Type
  ,                                       !- Construction Name
  {154fa0cb-9854-4d95-969a-37a522faa50b}, !- Space Name
  Outdoors,                               !- Outside Boundary Condition
  ,                                       !- Outside Boundary Condition Object
  SunExposed,                             !- Sun Exposure
  WindExposed,                            !- Wind Exposure
  ,                                       !- View Factor to Ground
  ,                                       !- Number of Vertices
  100, 50, 4,                             !- X,Y,Z Vertex 1 {m}
  100, 50, 0,                             !- X,Y,Z Vertex 2 {m}
  0, 50, 0,                               !- X,Y,Z Vertex 3 {m}
  0, 50, 4;                               !- X,Y,Z Vertex 4 {m}

OS:Surface,
  {6294e3f6-c899-466c-9945-4c3000765286}, !- Handle
  Story 1 Core Space Exterior Wall 1,     !- Name
  Wall,                                   !- Surface Type
  ,                                       !- Construction Name
  {154fa0cb-9854-4d95-969a-37a522faa50b}, !- Space Name
  Outdoors,                               !- Outside Boundary Condition
  ,                                       !- Outside Boundary Condition Object
  SunExposed,                             !- Sun Exposure
  WindExposed,                            !- Wind Exposure
  ,                                       !- View Factor to Ground
  ,                                       !- Number of Vertices
  100, 0, 4,                              !- X,Y,Z Vertex 1 {m}
  100, 0, 0,                              !- X,Y,Z Vertex 2 {m}
  100, 50, 0,                             !- X,Y,Z Vertex 3 {m}
  100, 50, 4;                             !- X,Y,Z Vertex 4 {m}

OS:Surface,
  {48030b46-c9aa-4db7-bb2e-5a59983b3a7f}, !- Handle
  Story 1 Core Space Exterior Wall,       !- Name
  Wall,                                   !- Surface Type
  ,                                       !- Construction Name
  {154fa0cb-9854-4d95-969a-37a522faa50b}, !- Space Name
  Outdoors,                               !- Outside Boundary Condition
  ,                                       !- Outside Boundary Condition Object
  SunExposed,                             !- Sun Exposure
  WindExposed,                            !- Wind Exposure
  ,                                       !- View Factor to Ground
  ,                                       !- Number of Vertices
  0, 0, 4,                                !- X,Y,Z Vertex 1 {m}
  0, 0, 0,                                !- X,Y,Z Vertex 2 {m}
  100, 0, 0,                              !- X,Y,Z Vertex 3 {m}
  100, 0, 4;                              !- X,Y,Z Vertex 4 {m}

OS:Surface,
  {873c4ef4-94ac-49f5-be84-2fe001ac45e1}, !- Handle
  Story 1 Core Space Exterior Roof,       !- Name
  RoofCeiling,                            !- Surface Type
  ,                                       !- Construction Name
  {154fa0cb-9854-4d95-969a-37a522faa50b}, !- Space Name
  Outdoors,                               !- Outside Boundary Condition
  ,                                       !- Outside Boundary Condition Object
  SunExposed,                             !- Sun Exposure
  WindExposed,                            !- Wind Exposure
  ,                                       !- View Factor to Ground
  ,                                       !- Number of Vertices
  100, 0, 4,                              !- X,Y,Z Vertex 1 {m}
  100, 50, 4,                             !- X,Y,Z Vertex 2 {m}
  0, 50, 4,                               !- X,Y,Z Vertex 3 {m}
  0, 0, 4;                                !- X,Y,Z Vertex 4 {m}

OS:ThermalZone,
  {172d9733-520c-480e-8bfa-4d051334edcb}, !- Handle
  Story 1 Core Thermal Zone,              !- Name
  ,                                       !- Multiplier
  ,                                       !- Ceiling Height {m}
  ,                                       !- Volume {m3}
  ,                                       !- Floor Area {m2}
  ,                                       !- Zone Inside Convection Algorithm
  ,                                       !- Zone Outside Convection Algorithm
  ,                                       !- Zone Conditioning Equipment List Name
  {ee9193b8-6d75-4295-a595-e09caf4edc06}, !- Zone Air Inlet Port List
  {9c89e0de-9a7a-4769-88e7-908ff072e7cd}, !- Zone Air Exhaust Port List
  {838418b1-a85a-4a8c-b55e-980eead1775d}, !- Zone Air Node Name
  {991cc24d-d6e6-437d-89f8-d1c4c1a14f3b}, !- Zone Return Air Port List
  ,                                       !- Primary Daylighting Control Name
  ,                                       !- Fraction of Zone Controlled by Primary Daylighting Control
  ,                                       !- Secondary Daylighting Control Name
  ,                                       !- Fraction of Zone Controlled by Secondary Daylighting Control
  ,                                       !- Illuminance Map Name
  ,                                       !- Group Rendering Name
  {94b9b44c-d1d0-49d4-9e70-51109ca4a848}, !- Thermostat Name
  No;                                     !- Use Ideal Air Loads

OS:Node,
  {fb2cd90f-1693-4e9c-83c8-7b00f2a043c3}, !- Handle
  Node 1,                                 !- Name
  {838418b1-a85a-4a8c-b55e-980eead1775d}, !- Inlet Port
  ;                                       !- Outlet Port

OS:Connection,
  {838418b1-a85a-4a8c-b55e-980eead1775d}, !- Handle
  {172d9733-520c-480e-8bfa-4d051334edcb}, !- Source Object
  11,                                     !- Outlet Port
  {fb2cd90f-1693-4e9c-83c8-7b00f2a043c3}, !- Target Object
  2;                                      !- Inlet Port

OS:PortList,
  {ee9193b8-6d75-4295-a595-e09caf4edc06}, !- Handle
  {172d9733-520c-480e-8bfa-4d051334edcb}, !- HVAC Component
  {66ab391e-4484-43cd-bdb8-04b581af527e}; !- Port 1

OS:PortList,
  {9c89e0de-9a7a-4769-88e7-908ff072e7cd}, !- Handle
  {172d9733-520c-480e-8bfa-4d051334edcb}; !- HVAC Component

OS:PortList,
  {991cc24d-d6e6-437d-89f8-d1c4c1a14f3b}, !- Handle
  {172d9733-520c-480e-8bfa-4d051334edcb}, !- HVAC Component
  {4db81d82-0183-41bf-8796-0bb81ca99c92}; !- Port 1

OS:Sizing:Zone,
  {3b2d1431-6241-4a84-93de-2640ffd60947}, !- Handle
  {172d9733-520c-480e-8bfa-4d051334edcb}, !- Zone or ZoneList Name
  SupplyAirTemperature,                   !- Zone Cooling Design Supply Air Temperature Input Method
  14,                                     !- Zone Cooling Design Supply Air Temperature {C}
  11.11,                                  !- Zone Cooling Design Supply Air Temperature Difference {deltaC}
  SupplyAirTemperature,                   !- Zone Heating Design Supply Air Temperature Input Method
  40,                                     !- Zone Heating Design Supply Air Temperature {C}
  11.11,                                  !- Zone Heating Design Supply Air Temperature Difference {deltaC}
  0.0085,                                 !- Zone Cooling Design Supply Air Humidity Ratio {kg-H2O/kg-air}
  0.008,                                  !- Zone Heating Design Supply Air Humidity Ratio {kg-H2O/kg-air}
  ,                                       !- Zone Heating Sizing Factor
  ,                                       !- Zone Cooling Sizing Factor
  DesignDay,                              !- Cooling Design Air Flow Method
  ,                                       !- Cooling Design Air Flow Rate {m3/s}
  ,                                       !- Cooling Minimum Air Flow per Zone Floor Area {m3/s-m2}
  ,                                       !- Cooling Minimum Air Flow {m3/s}
  ,                                       !- Cooling Minimum Air Flow Fraction
  DesignDay,                              !- Heating Design Air Flow Method
  ,                                       !- Heating Design Air Flow Rate {m3/s}
  ,                                       !- Heating Maximum Air Flow per Zone Floor Area {m3/s-m2}
  ,                                       !- Heating Maximum Air Flow {m3/s}
  ,                                       !- Heating Maximum Air Flow Fraction
  No,                                     !- Account for Dedicated Outdoor Air System
  NeutralSupplyAir,                       !- Dedicated Outdoor Air System Control Strategy
  autosize,                               !- Dedicated Outdoor Air Low Setpoint Temperature for Design {C}
  autosize,                               !- Dedicated Outdoor Air High Setpoint Temperature for Design {C}
  Sensible Load Only No Latent Load,      !- Zone Load Sizing Method
  HumidityRatioDifference,                !- Zone Latent Cooling Design Supply Air Humidity Ratio Input Method
  ,                                       !- Zone Dehumidification Design Supply Air Humidity Ratio {kgWater/kgDryAir}
  0.005,                                  !- Zone Cooling Design Supply Air Humidity Ratio Difference {kgWater/kgDryAir}
  HumidityRatioDifference,                !- Zone Latent Heating Design Supply Air Humidity Ratio Input Method
  ,                                       !- Zone Humidification Design Supply Air Humidity Ratio {kgWater/kgDryAir}
  0.005;                                  !- Zone Humidification Design Supply Air Humidity Ratio Difference {kgWater/kgDryAir}

OS:ZoneHVAC:EquipmentList,
  {6b55d8f2-ffae-4fc0-933b-477bdc454753}, !- Handle
  Zone HVAC Equipment List 1,             !- Name
  {172d9733-520c-480e-8bfa-4d051334edcb}, !- Thermal Zone
  ,                                       !- Load Distribution Scheme
  {d55c56aa-19e6-4a17-8ee9-a0e77b5ce3fb}, !- Zone Equipment 1
  1,                                      !- Zone Equipment Cooling Sequence 1
  1,                                      !- Zone Equipment Heating or No-Load Sequence 1
  ,                                       !- Zone Equipment Sequential Cooling Fraction Schedule Name 1
  ;                                       !- Zone Equipment Sequential Heating Fraction Schedule Name 1

OS:SubSurface,
  {2d92bfa8-edd5-4eda-944c-d9e4d7379681}, !- Handle
  Story 1 Core Space Exterior Wall Window, !- Name
  FixedWindow,                            !- Sub Surface Type
  ,                                       !- Construction Name
  {48030b46-c9aa-4db7-bb2e-5a59983b3a7f}, !- Surface Name
  ,                                       !- Outside Boundary Condition Object
  ,                                       !- View Factor to Ground
  ,                                       !- Frame and Divider Name
  ,                                       !- Multiplier
  ,                                       !- Number of Vertices
  0.0254, 0, 2.60081321311226,            !- X,Y,Z Vertex 1 {m}
  0.0254, 0, 1,                           !- X,Y,Z Vertex 2 {m}
  99.9746, 0, 1,                          !- X,Y,Z Vertex 3 {m}
  99.9746, 0, 2.60081321311226;           !- X,Y,Z Vertex 4 {m}

OS:SubSurface,
  {097544e5-596d-40fa-b8d3-25d9525df9ba}, !- Handle
  Story 1 Core Space Exterior Wall 1 Window, !- Name
  FixedWindow,                            !- Sub Surface Type
  ,                                       !- Construction Name
  {6294e3f6-c899-466c-9945-4c3000765286}, !- Surface Name
  ,                                       !- Outside Boundary Condition Object
  ,                                       !- View Factor to Ground
  ,                                       !- Frame and Divider Name
  ,                                       !- Multiplier
  ,                                       !- Number of Vertices
  100, 0.0254, 2.60162725328934,          !- X,Y,Z Vertex 1 {m}
  100, 0.0254, 1,                         !- X,Y,Z Vertex 2 {m}
  100, 49.9746, 1,                        !- X,Y,Z Vertex 3 {m}
  100, 49.9746, 2.60162725328934;         !- X,Y,Z Vertex 4 {m}

OS:SubSurface,
  {b4ae07c5-4327-4842-8757-f9281032facb}, !- Handle
  Story 1 Core Space Exterior Wall 2 Window, !- Name
  FixedWindow,                            !- Sub Surface Type
  ,                                       !- Construction Name
  {79434785-9335-4eaf-94bc-85831d21e1e9}, !- Surface Name
  ,                                       !- Outside Boundary Condition Object
  ,                                       !- View Factor to Ground
  ,                                       !- Frame and Divider Name
  ,                                       !- Multiplier
  ,                                       !- Number of Vertices
  99.9746, 50, 2.60081321311226,          !- X,Y,Z Vertex 1 {m}
  99.9746, 50, 1,                         !- X,Y,Z Vertex 2 {m}
  0.0253999999999905, 50, 1,              !- X,Y,Z Vertex 3 {m}
  0.0253999999999905, 50, 2.60081321311226; !- X,Y,Z Vertex 4 {m}

OS:SubSurface,
  {8f95e038-693d-4629-a7e5-413cca7ba7e5}, !- Handle
  Story 1 Core Space Exterior Wall 3 Window, !- Name
  FixedWindow,                            !- Sub Surface Type
  ,                                       !- Construction Name
  {0694d6b9-fd8c-464f-9f89-84c1ac40dffb}, !- Surface Name
  ,                                       !- Outside Boundary Condition Object
  ,                                       !- View Factor to Ground
  ,                                       !- Frame and Divider Name
  ,                                       !- Multiplier
  ,                                       !- Number of Vertices
  0, 49.9746, 2.60162725328934,           !- X,Y,Z Vertex 1 {m}
  0, 49.9746, 1,                          !- X,Y,Z Vertex 2 {m}
  0, 0.0254000000000048, 1,               !- X,Y,Z Vertex 3 {m}
  0, 0.0254000000000048, 2.60162725328934; !- X,Y,Z Vertex 4 {m}

OS:Schedule:Ruleset,
  {6dc6ab19-2099-4a19-a936-6bcbc51cbd8a}, !- Handle
  Cooling Sch,                            !- Name
  {297e8650-e02d-4db0-8442-da6f279ff758}, !- Schedule Type Limits Name
  {4c237c1a-8739-4f82-8881-5e67b7c50efd}; !- Default Day Schedule Name

OS:Schedule:Day,
  {4c237c1a-8739-4f82-8881-5e67b7c50efd}, !- Handle
  Cooling Sch Default,                    !- Name
  {297e8650-e02d-4db0-8442-da6f279ff758}, !- Schedule Type Limits Name
  ,                                       !- Interpolate to Timestep
  24,                                     !- Hour 1
  0,                                      !- Minute 1
  26;                                     !- Value Until Time 1

OS:Schedule:Ruleset,
  {926da7d6-9b54-4117-b762-5c3ddf896795}, !- Handle
  Heating Sch,                            !- Name
  {297e8650-e02d-4db0-8442-da6f279ff758}, !- Schedule Type Limits Name
  {57378062-a1c4-4792-bb0f-1e28792a712b}; !- Default Day Schedule Name

OS:Schedule:Day,
  {57378062-a1c4-4792-bb0f-1e28792a712b}, !- Handle
  Heating Sch Default,                    !- Name
  {297e8650-e02d-4db0-8442-da6f279ff758}, !- Schedule Type Limits Name
  ,                                       !- Interpolate to Timestep
  24,                                     !- Hour 1
  0,                                      !- Minute 1
  19;                                     !- Value Until Time 1

OS:ThermostatSetpoint:DualSetpoint,
  {94b9b44c-d1d0-49d4-9e70-51109ca4a848}, !- Handle
  Thermostat Setpoint Dual Setpoint 1,    !- Name
  {926da7d6-9b54-4117-b762-5c3ddf896795}, !- Heating Setpoint Temperature Schedule Name
  {6dc6ab19-2099-4a19-a936-6bcbc51cbd8a}; !- Cooling Setpoint Temperature Schedule Name

OS:ScheduleTypeLimits,
  {297e8650-e02d-4db0-8442-da6f279ff758}, !- Handle
  Temperature,                            !- Name
  ,                                       !- Lower Limit Value
  ,                                       !- Upper Limit Value
  Continuous,                             !- Numeric Type
  Temperature;                            !- Unit Type

OS:DefaultConstructionSet,
  {a26fab0c-6919-4cc7-8ea2-95e38d4b4a94}, !- Handle
  ASHRAE_189.1-2009_ClimateZone 4-5 (mdoff)_ConstSet, !- Name
  {a00d65ee-5691-4b58-a344-637500e7e605}, !- Default Exterior Surface Constructions Name
  {56af0eb4-56cd-45aa-bcfa-9d029b766913}, !- Default Interior Surface Constructions Name
  {68e24733-e74b-42ee-958d-311765e22d61}, !- Default Ground Contact Surface Constructions Name
  {528c7282-efcc-4760-a1f3-e36447e0a64a}, !- Default Exterior SubSurface Constructions Name
  {6998049b-e948-47f0-8f24-9b51121673f1}, !- Default Interior SubSurface Constructions Name
  {afef9226-6ff8-46c8-aa2d-288b93bcfd88}, !- Interior Partition Construction Name
  ,                                       !- Space Shading Construction Name
  ,                                       !- Building Shading Construction Name
  ,                                       !- Site Shading Construction Name
  ;                                       !- Adiabatic Surface Construction Name

OS:DefaultSurfaceConstructions,
  {a00d65ee-5691-4b58-a344-637500e7e605}, !- Handle
  ASHRAE_189.1-2009_ClimateZone 4-5 (mdoff)_Exterior_DefSurfCons, !- Name
  {3c64f5d2-95e7-4c50-a19f-48d533f512b5}, !- Floor Construction Name
  {f560bb08-cf0e-4a5d-8fcd-abc781496b76}, !- Wall Construction Name
  {e4d7940f-919e-42e0-b9f4-2ecf0363ccb2}; !- Roof Ceiling Construction Name

OS:DefaultSurfaceConstructions,
  {56af0eb4-56cd-45aa-bcfa-9d029b766913}, !- Handle
  000_Interior_DefSurfCons,               !- Name
  {07c7f0a6-0087-4613-9e21-54dc98aa08a9}, !- Floor Construction Name
  {d89a4e65-0045-41f9-bf0a-b543a8da3b8d}, !- Wall Construction Name
  {c26c743d-7e7e-4b54-9ca9-e5de03a2e08b}; !- Roof Ceiling Construction Name

OS:DefaultSurfaceConstructions,
  {68e24733-e74b-42ee-958d-311765e22d61}, !- Handle
  000_Ground_DefSurfCons,                 !- Name
  {3c64f5d2-95e7-4c50-a19f-48d533f512b5}, !- Floor Construction Name
  {3c64f5d2-95e7-4c50-a19f-48d533f512b5}, !- Wall Construction Name
  {3c64f5d2-95e7-4c50-a19f-48d533f512b5}; !- Roof Ceiling Construction Name

OS:DefaultSubSurfaceConstructions,
  {528c7282-efcc-4760-a1f3-e36447e0a64a}, !- Handle
  ASHRAE_189.1-2009_ClimateZone 4-5 (mdoff)_Exterior_DefSubCons, !- Name
  {427fe8e7-b60e-479c-b1e4-3924ac88319e}, !- Fixed Window Construction Name
  {427fe8e7-b60e-479c-b1e4-3924ac88319e}, !- Operable Window Construction Name
  {7689be25-9a67-4962-bd88-e1d88951dcc4}, !- Door Construction Name
  {b16bb694-d39d-431a-8b2c-822e12173b21}, !- Glass Door Construction Name
  ,                                       !- Overhead Door Construction Name
  {b16bb694-d39d-431a-8b2c-822e12173b21}, !- Skylight Construction Name
  {8955a683-2ee6-4c83-8c1e-f13f1dadd3e0}, !- Tubular Daylight Dome Construction Name
  {8955a683-2ee6-4c83-8c1e-f13f1dadd3e0}; !- Tubular Daylight Diffuser Construction Name

OS:DefaultSubSurfaceConstructions,
  {6998049b-e948-47f0-8f24-9b51121673f1}, !- Handle
  000_Interior_DefSubCons,                !- Name
  {8955a683-2ee6-4c83-8c1e-f13f1dadd3e0}, !- Fixed Window Construction Name
  {8955a683-2ee6-4c83-8c1e-f13f1dadd3e0}, !- Operable Window Construction Name
  {8dc7c94d-d43e-40e6-b6e9-6373d5ff0728}, !- Door Construction Name
  {b16bb694-d39d-431a-8b2c-822e12173b21}, !- Glass Door Construction Name
  ,                                       !- Overhead Door Construction Name
  {b16bb694-d39d-431a-8b2c-822e12173b21}, !- Skylight Construction Name
  {8955a683-2ee6-4c83-8c1e-f13f1dadd3e0}, !- Tubular Daylight Dome Construction Name
  {8955a683-2ee6-4c83-8c1e-f13f1dadd3e0}; !- Tubular Daylight Diffuser Construction Name

OS:Construction,
  {afef9226-6ff8-46c8-aa2d-288b93bcfd88}, !- Handle
  000_Interior Partition,                 !- Name
  ,                                       !- Surface Rendering Name
  {2cf2528c-26f1-47c4-9b01-b003f0ccb0d5}; !- Layer 1

OS:Construction,
  {3c64f5d2-95e7-4c50-a19f-48d533f512b5}, !- Handle
  000_ExtSlabCarpet_4in_ClimateZone 1-8,  !- Name
  ,                                       !- Surface Rendering Name
  {660713e6-5bb3-4d4e-8cc3-9eacabeb8f85}, !- Layer 1
  {60ff8c43-14ed-497b-9c33-04d41bb6c493}; !- Layer 2

OS:Construction,
  {f560bb08-cf0e-4a5d-8fcd-abc781496b76}, !- Handle
  ASHRAE_189.1-2009_ExtWall_SteelFrame_ClimateZone 4-8, !- Name
  ,                                       !- Surface Rendering Name
  {15e5fda9-c479-4f09-8765-d204f1da22c7}, !- Layer 1
  {4da756ef-f49b-4f7e-8e35-964641b7c1cd}, !- Layer 2
  {e5e0a1c6-6798-40e7-9c8c-b4a43fe397db}; !- Layer 3

OS:Construction,
  {e4d7940f-919e-42e0-b9f4-2ecf0363ccb2}, !- Handle
  ASHRAE_189.1-2009_ExtRoof_IEAD_ClimateZone 2-5, !- Name
  ,                                       !- Surface Rendering Name
  {c625f324-d4f0-47c6-a455-c900dd48b88e}, !- Layer 1
  {20feb4cb-efe3-4cf7-93eb-46aff1db07dd}, !- Layer 2
  {527517ce-0067-4f44-b860-5bf00c87e433}; !- Layer 3

OS:Construction,
  {07c7f0a6-0087-4613-9e21-54dc98aa08a9}, !- Handle
  000_Interior Floor,                     !- Name
  ,                                       !- Surface Rendering Name
  {04d3e512-461b-4c6a-84be-f3c9cddcc39f}, !- Layer 1
  {376e8b59-c374-461c-b6a7-2f208d1e8113}, !- Layer 2
  {a03c5fea-5408-4eca-9f89-1df5174f0b62}; !- Layer 3

OS:Construction,
  {d89a4e65-0045-41f9-bf0a-b543a8da3b8d}, !- Handle
  000_Interior Wall,                      !- Name
  ,                                       !- Surface Rendering Name
  {729d75c0-1afa-4426-b385-ec8700cb8b44}, !- Layer 1
  {a5d88277-f6d7-4584-b517-b983b3490030}, !- Layer 2
  {729d75c0-1afa-4426-b385-ec8700cb8b44}; !- Layer 3

OS:Construction,
  {c26c743d-7e7e-4b54-9ca9-e5de03a2e08b}, !- Handle
  000_Interior Ceiling,                   !- Name
  ,                                       !- Surface Rendering Name
  {a03c5fea-5408-4eca-9f89-1df5174f0b62}, !- Layer 1
  {376e8b59-c374-461c-b6a7-2f208d1e8113}, !- Layer 2
  {04d3e512-461b-4c6a-84be-f3c9cddcc39f}; !- Layer 3

OS:Construction,
  {427fe8e7-b60e-479c-b1e4-3924ac88319e}, !- Handle
  ASHRAE_189.1-2009_ExtWindow_ClimateZone 4-5, !- Name
  ,                                       !- Surface Rendering Name
  {19212c5c-90ce-47af-a485-d5c46df5b6b8}; !- Layer 1

OS:Construction,
  {7689be25-9a67-4962-bd88-e1d88951dcc4}, !- Handle
  000_Exterior Door,                      !- Name
  ,                                       !- Surface Rendering Name
  {6b072495-f42b-40da-8c09-0baad86705c2}, !- Layer 1
  {9b0a44d1-b8ee-4544-8cd2-159106f8986c}; !- Layer 2

OS:Construction,
  {b16bb694-d39d-431a-8b2c-822e12173b21}, !- Handle
  000_Exterior Window,                    !- Name
  ,                                       !- Surface Rendering Name
  {e6e6c18e-7ca6-48ad-8215-e6ac92a0abec}, !- Layer 1
  {7c249167-a5c2-4c38-92d9-810be0f98c84}, !- Layer 2
  {e6e6c18e-7ca6-48ad-8215-e6ac92a0abec}; !- Layer 3

OS:Construction,
  {8955a683-2ee6-4c83-8c1e-f13f1dadd3e0}, !- Handle
  000_Interior Window,                    !- Name
  ,                                       !- Surface Rendering Name
  {e6e6c18e-7ca6-48ad-8215-e6ac92a0abec}; !- Layer 1

OS:Construction,
  {8dc7c94d-d43e-40e6-b6e9-6373d5ff0728}, !- Handle
  000_Interior Door,                      !- Name
  ,                                       !- Surface Rendering Name
  {2cf2528c-26f1-47c4-9b01-b003f0ccb0d5}; !- Layer 1

OS:Material,
  {2cf2528c-26f1-47c4-9b01-b003f0ccb0d5}, !- Handle
  000_G05 25mm wood,                      !- Name
  MediumSmooth,                           !- Roughness
  0.025399999999999999,                   !- Thickness {m}
  0.14999999999999999,                    !- Conductivity {W/m-K}
  608,                                    !- Density {kg/m3}
  1630;                                   !- Specific Heat {J/kg-K}

OS:Material,
  {660713e6-5bb3-4d4e-8cc3-9eacabeb8f85}, !- Handle
  MAT-CC05 4 HW CONCRETE,                 !- Name
  Rough,                                  !- Roughness
  0.1016,                                 !- Thickness {m}
  1.3109999999999999,                     !- Conductivity {W/m-K}
  2240,                                   !- Density {kg/m3}
  836.8,                                  !- Specific Heat {J/kg-K}
  0.90000000000000002,                    !- Thermal Absorptance
  0.69999999999999996,                    !- Solar Absorptance
  0.69999999999999996;                    !- Visible Absorptance

OS:Material:NoMass,
  {60ff8c43-14ed-497b-9c33-04d41bb6c493}, !- Handle
  CP02 CARPET PAD,                        !- Name
  VeryRough,                              !- Roughness
  0.2165,                                 !- Thermal Resistance {m2-K/W}
  0.90000000000000002,                    !- Thermal Absorptance
  0.69999999999999996,                    !- Solar Absorptance
  0.80000000000000004;                    !- Visible Absorptance

OS:Material:NoMass,
  {15e5fda9-c479-4f09-8765-d204f1da22c7}, !- Handle
  MAT-SHEATH,                             !- Name
  Rough,                                  !- Roughness
  0.36259999999999998,                    !- Thermal Resistance {m2-K/W}
  0.90000000000000002,                    !- Thermal Absorptance
  0.69999999999999996,                    !- Solar Absorptance
  0.69999999999999996;                    !- Visible Absorptance

OS:Material,
  {4da756ef-f49b-4f7e-8e35-964641b7c1cd}, !- Handle
  Wall Insulation [39],                   !- Name
  MediumRough,                            !- Roughness
  0.11840000000000001,                    !- Thickness {m}
  0.044999999999999998,                   !- Conductivity {W/m-K}
  265,                                    !- Density {kg/m3}
  836.8,                                  !- Specific Heat {J/kg-K}
  0.90000000000000002,                    !- Thermal Absorptance
  0.69999999999999996,                    !- Solar Absorptance
  0.69999999999999996;                    !- Visible Absorptance

OS:Material,
  {e5e0a1c6-6798-40e7-9c8c-b4a43fe397db}, !- Handle
  1/2IN Gypsum,                           !- Name
  Smooth,                                 !- Roughness
  0.012699999999999999,                   !- Thickness {m}
  0.16,                                   !- Conductivity {W/m-K}
  784.89999999999998,                     !- Density {kg/m3}
  830,                                    !- Specific Heat {J/kg-K}
  0.90000000000000002,                    !- Thermal Absorptance
  0.92000000000000004,                    !- Solar Absorptance
  0.92000000000000004;                    !- Visible Absorptance

OS:Material,
  {c625f324-d4f0-47c6-a455-c900dd48b88e}, !- Handle
  Roof Membrane,                          !- Name
  VeryRough,                              !- Roughness
  0.0094999999999999998,                  !- Thickness {m}
  0.16,                                   !- Conductivity {W/m-K}
  1121.29,                                !- Density {kg/m3}
  1460,                                   !- Specific Heat {J/kg-K}
  0.90000000000000002,                    !- Thermal Absorptance
  0.69999999999999996,                    !- Solar Absorptance
  0.69999999999999996;                    !- Visible Absorptance

OS:Material,