
OS:Version,
  {31e21124-30fb-4ae0-bf3a-e7ed4cb967e1}, !- Handle
  3.5.0;                                  !- Version Identifier

OS:BuildingStory,
  {5e8a83eb-57ec-48df-86ff-00cc5b700453}, !- Handle
  Story 1,                                !- Name
  0,                                      !- Nominal Z Coordinate {m}
  4,                                      !- Nominal Floor to Floor Height {m}
  ,                                       !- Default Construction Set Name
  ,                                       !- Default Schedule Set Name
  ;                                       !- Group Rendering Name

OS:Space,
  {1107d57d-5dc0-4b61-9443-8ee6da2f7e81}, !- Handle
  Story 1 Core Space,                     !- Name
  ,                                       !- Space Type Name
  ,                                       !- Default Construction Set Name
  ,                                       !- Default Schedule Set Name
  -0,                                     !- Direction of Relative North {deg}
  0,                                      !- X Origin {m}
  0,                                      !- Y Origin {m}
  0,                                      !- Z Origin {m}
  {5e8a83eb-57ec-48df-86ff-00cc5b700453}, !- Building Story Name
  {8c088126-dd2c-44ef-a9a1-e693c4f782b3}; !- Thermal Zone Name

OS:Surface,
  {246629c7-0f74-49be-ad83-5d2fe2abb7a4}, !- Handle
  Story 1 Core Space Exterior Ground Floor, !- Name
  Floor,                                  !- Surface Type
  ,                                       !- Construction Name
  {1107d57d-5dc0-4b61-9443-8ee6da2f7e81}, !- Space Name
  Ground,                                 !- Outside Boundary Condition
  ,                                       !- Outside Boundary Condition Object
  NoSun,                                  !- Sun Exposure
  NoWind,                                 !- Wind Exposure
  ,                                       !- View Factor to Ground
  ,                                       !- Number of Vertices
  0, 0, 0,                                !- X,Y,Z Vertex 1 {m}
  0, 50, 0,                               !- X,Y,Z Vertex 2 {m}
  100, 50, 0,                             !- X,Y,Z Vertex 3 {m}
  100, 0, 0;                              !- X,Y,Z Vertex 4 {m}

OS:Surface,
  {9edcf6cc-bf5a-4af1-8303-de57b54a2a6c}, !- Handle
  Story 1 Core Space Exterior Wall 3,     !- Name
  Wall,                                   !- Surface Type
  ,                                       !- Construction Name
  {1107d57d-5dc0-4b61-9443-8ee6da2f7e81}, !- Space Name
  Outdoors,                               !- Outside Boundary Condition
  ,                                       !- Outside Boundary Condition Object
  SunExposed,                             !- Sun Exposure
  WindExposed,                            !- Wind Exposure
  ,                                       !- View Factor to Ground
  ,                                       !- Number of Vertices
  0, 50, 4,                               !- X,Y,Z Vertex 1 {m}
  0, 50, 0,                               !- X,Y,Z Vertex 2 {m}
  0, 0, 0,                                !- X,Y,Z Vertex 3 {m}
  0, 0, 4;                                !- X,Y,Z Vertex 4 {m}

OS:Surface,
  {bd011765-b3d4-437d-b27a-326ee7b099cf}, !- Handle
  Story 1 Core Space Exterior Wall 2,     !- Name
  Wall,                                   !- Surface Type
  ,                                       !- Construction Name
  {1107d57d-5dc0-4b61-9443-8ee6da2f7e81}, !- Space Name
  Outdoors,                               !- Outside Boundary Condition
  ,                                       !- Outside Boundary Condition Object
  SunExposed,                             !- Sun Exposure
  WindExposed,                            !- Wind Exposure
  ,                                       !- View Factor to Ground
  ,                                       !- Number of Vertices
  100, 50, 4,                             !- X,Y,Z Vertex 1 {m}
  100, 50, 0,                             !- X,Y,Z Vertex 2 {m}
  0, 50, 0,                               !- X,Y,Z Vertex 3 {m}
  0, 50, 4;                               !- X,Y,Z Vertex 4 {m}

OS:Surface,
  {e3a96cc7-d147-40dd-a615-d36678160e71}, !- Handle
  Story 1 Core Space Exterior Wall 1,     !- Name
  Wall,                                   !- Surface Type
  ,                                       !- Construction Name
  {1107d57d-5dc0-4b61-9443-8ee6da2f7e81}, !- Space Name
  Outdoors,                               !- Outside Boundary Condition
  ,                                       !- Outside Boundary Condition Object
  SunExposed,                             !- Sun Exposure
  WindExposed,                            !- Wind Exposure
  ,                                       !- View Factor to Ground
  ,                                       !- Number of Vertices
  100, 0, 4,                              !- X,Y,Z Vertex 1 {m}
  100, 0, 0,                              !- X,Y,Z Vertex 2 {m}
  100, 50, 0,                             !- X,Y,Z Vertex 3 {m}
  100, 50, 4;                             !- X,Y,Z Vertex 4 {m}

OS:Surface,
  {e798d83c-d300-4ca9-8d63-655f8a659b06}, !- Handle
  Story 1 Core Space Exterior Wall,       !- Name
  Wall,                                   !- Surface Type
  ,                                       !- Construction Name
  {1107d57d-5dc0-4b61-9443-8ee6da2f7e81}, !- Space Name
  Outdoors,                               !- Outside Boundary Condition
  ,                                       !- Outside Boundary Condition Object
  SunExposed,                             !- Sun Exposure
  WindExposed,                            !- Wind Exposure
  ,                                       !- View Factor to Ground
  ,                                       !- Number of Vertices
  0, 0, 4,                                !- X,Y,Z Vertex 1 {m}
  0, 0, 0,                                !- X,Y,Z Vertex 2 {m}
  100, 0, 0,                              !- X,Y,Z Vertex 3 {m}
  100, 0, 4;                              !- X,Y,Z Vertex 4 {m}

OS:Surface,
  {1d306816-ac36-4ff0-a2c3-01c19a2af470}, !- Handle
  Story 1 Core Space Exterior Roof,       !- Name
  RoofCeiling,                            !- Surface Type
  ,                                       !- Construction Name
  {1107d57d-5dc0-4b61-9443-8ee6da2f7e81}, !- Space Name
  Outdoors,                               !- Outside Boundary Condition
  ,                                       !- Outside Boundary Condition Object
  SunExposed,                             !- Sun Exposure
  WindExposed,                            !- Wind Exposure
  ,                                       !- View Factor to Ground
  ,                                       !- Number of Vertices
  100, 0, 4,                              !- X,Y,Z Vertex 1 {m}
  100, 50, 4,                             !- X,Y,Z Vertex 2 {m}
  0, 50, 4,                               !- X,Y,Z Vertex 3 {m}
  0, 0, 4;                                !- X,Y,Z Vertex 4 {m}

OS:ThermalZone,
  {8c088126-dd2c-44ef-a9a1-e693c4f782b3}, !- Handle
  Story 1 Core Thermal Zone,              !- Name
  ,                                       !- Multiplier
  ,                                       !- Ceiling Height {m}
  ,                                       !- Volume {m3}
  ,                                       !- Floor Area {m2}
  ,                                       !- Zone Inside Convection Algorithm
  ,                                       !- Zone Outside Convection Algorithm
  ,                                       !- Zone Conditioning Equipment List Name
  {381a8cc4-2409-45de-8ea6-b8c957245fa3}, !- Zone Air Inlet Port List
  {11fe9f8c-c87b-42d8-b11d-8765774d0e0e}, !- Zone Air Exhaust Port List
  {6158a260-34e9-4675-b650-74e10d3535f5}, !- Zone Air Node Name
  {5a34873d-498b-4dd6-9430-ea0e953961c0}, !- Zone Return Air Port List
  ,                                       !- Primary Daylighting Control Name
  ,                                       !- Fraction of Zone Controlled by Primary Daylighting Control
  ,                                       !- Secondary Daylighting Control Name
  ,                                       !- Fraction of Zone Controlled by Secondary Daylighting Control
  ,                                       !- Illuminance Map Name
  ,                                       !- Group Rendering Name
  {1694da5c-7032-433c-b131-7607a62d6004}, !- Thermostat Name
  No;                                     !- Use Ideal Air Loads

OS:Node,
  {edecbd56-d6a1-4c97-a875-3a593b2a4f0f}, !- Handle
  Node 1,                                 !- Name
  {6158a260-34e9-4675-b650-74e10d3535f5}, !- Inlet Port
  ;                                       !- Outlet Port

OS:Connection,
  {6158a260-34e9-4675-b650-74e10d3535f5}, !- Handle
  {8c088126-dd2c-44ef-a9a1-e693c4f782b3}, !- Source Object
  11,                                     !- Outlet Port
  {edecbd56-d6a1-4c97-a875-3a593b2a4f0f}, !- Target Object
  2;                                      !- Inlet Port

OS:PortList,
  {381a8cc4-2409-45de-8ea6-b8c957245fa3}, !- Handle
  {8c088126-dd2c-44ef-a9a1-e693c4f782b3}, !- HVAC Component
  {336128ca-1eb0-473d-92b3-af5e91085e8a}; !- Port 1

OS:PortList,
  {11fe9f8c-c87b-42d8-b11d-8765774d0e0e}, !- Handle
  {8c088126-dd2c-44ef-a9a1-e693c4f782b3}; !- HVAC Component

OS:PortList,
  {5a34873d-498b-4dd6-9430-ea0e953961c0}, !- Handle
  {8c088126-dd2c-44ef-a9a1-e693c4f782b3}, !- HVAC Component
  {e741f227-17e9-4d79-9b9a-e9a1c9e2a0f3}; !- Port 1

OS:Sizing:Zone,
  {3abd54cf-93e7-4b82-a673-c1747fa0133d}, !- Handle
  {8c088126-dd2c-44ef-a9a1-e693c4f782b3}, !- Zone or ZoneList Name
  SupplyAirTemperature,                   !- Zone Cooling Design Supply Air Temperature Input Method
  14,                                     !- Zone Cooling Design Supply Air Temperature {C}
  11.11,                                  !- Zone Cooling Design Supply Air Temperature Difference {deltaC}
  SupplyAirTemperature,                   !- Zone Heating Design Supply Air Temperature Input Method
  40,                                     !- Zone Heating Design Supply Air Temperature {C}
  11.11,                                  !- Zone Heating Design Supply Air Temperature Difference {deltaC}
  0.0085,                                 !- Zone Cooling Design Supply Air Humidity Ratio {kg-H2O/kg-air}
  0.008,                                  !- Zone Heating Design Supply Air Humidity Ratio {kg-H2O/kg-air}
  ,                                       !- Zone Heating Sizing Factor
  ,                                       !- Zone Cooling Sizing Factor
  DesignDay,                              !- Cooling Design Air Flow Method
  ,                                       !- Cooling Design Air Flow Rate {m3/s}
  ,                                       !- Cooling Minimum Air Flow per Zone Floor Area {m3/s-m2}
  ,                                       !- Cooling Minimum Air Flow {m3/s}
  ,                                       !- Cooling Minimum Air Flow Fraction
  DesignDay,                              !- Heating Design Air Flow Method
  ,                                       !- Heating Design Air Flow Rate {m3/s}
  ,                                       !- Heating Maximum Air Flow per Zone Floor Area {m3/s-m2}
  ,                                       !- Heating Maximum Air Flow {m3/s}
  ,                                       !- Heating Maximum Air Flow Fraction
  No,                                     !- Account for Dedicated Outdoor Air System
  NeutralSupplyAir,                       !- Dedicated Outdoor Air System Control Strategy
  autosize,                               !- Dedicated Outdoor Air Low Setpoint Temperature for Design {C}
  autosize,                               !- Dedicated Outdoor Air High Setpoint Temperature for Design {C}
  Sensible Load Only No Latent Load,      !- Zone Load Sizing Method
  HumidityRatioDifference,                !- Zone Latent Cooling Design Supply Air Humidity Ratio Input Method
  ,                                       !- Zone Dehumidification Design Supply Air Humidity Ratio {kgWater/kgDryAir}
  0.005,                                  !- Zone Cooling Design Supply Air Humidity Ratio Difference {kgWater/kgDryAir}
  HumidityRatioDifference,                !- Zone Latent Heating Design Supply Air Humidity Ratio Input Method
  ,                                       !- Zone Humidification Design Supply Air Humidity Ratio {kgWater/kgDryAir}
  0.005;                                  !- Zone Humidification Design Supply Air Humidity Ratio Difference {kgWater/kgDryAir}

OS:ZoneHVAC:EquipmentList,
  {81331266-df63-49af-9090-0c95000844aa}, !- Handle
  Zone HVAC Equipment List 1,             !- Name
  {8c088126-dd2c-44ef-a9a1-e693c4f782b3}, !- Thermal Zone
  ,                                       !- Load Distribution Scheme
  {97c9c0f1-bc71-45f0-a451-ff30646f1c34}, !- Zone Equipment 1
  1,                                      !- Zone Equipment Cooling Sequence 1
  1,                                      !- Zone Equipment Heating or No-Load Sequence 1
  ,                                       !- Zone Equipment Sequential Cooling Fraction Schedule Name 1
  ;                                       !- Zone Equipment Sequential Heating Fraction Schedule Name 1

OS:SubSurface,
  {852e677f-986f-47ec-aabb-4137e6b8b86c}, !- Handle
  Story 1 Core Space Exterior Wall 1 Window, !- Name
  FixedWindow,                            !- Sub Surface Type
  ,                                       !- Construction Name
  {e3a96cc7-d147-40dd-a615-d36678160e71}, !- Surface Name
  ,                                       !- Outside Boundary Condition Object
  ,                                       !- View Factor to Ground
  ,                                       !- Frame and Divider Name
  ,                                       !- Multiplier
  ,                                       !- Number of Vertices
  100, 0.0254, 2.60162725328934,          !- X,Y,Z Vertex 1 {m}
  100, 0.0254, 1,                         !- X,Y,Z Vertex 2 {m}
  100, 49.9746, 1,                        !- X,Y,Z Vertex 3 {m}
  100, 49.9746, 2.60162725328934;         !- X,Y,Z Vertex 4 {m}

OS:SubSurface,
  {ff19ac65-9e10-4086-b34a-89d18bc95e36}, !- Handle
  Story 1 Core Space Exterior Wall 2 Window, !- Name
  FixedWindow,                            !- Sub Surface Type
  ,                                       !- Construction Name
  {bd011765-b3d4-437d-b27a-326ee7b099cf}, !- Surface Name
  ,                                       !- Outside Boundary Condition Object
  ,                                       !- View Factor to Ground
  ,                                       !- Frame and Divider Name
  ,                                       !- Multiplier
  ,                                       !- Number of Vertices
  99.9746, 50, 2.60081321311226,          !- X,Y,Z Vertex 1 {m}
  99.9746, 50, 1,                         !- X,Y,Z Vertex 2 {m}
  0.0253999999999905, 50, 1,              !- X,Y,Z Vertex 3 {m}
  0.0253999999999905, 50, 2.60081321311226; !- X,Y,Z Vertex 4 {m}

OS:SubSurface,
  {65ded963-8995-477a-bbd4-1a53554918e0}, !- Handle
  Story 1 Core Space Exterior Wall Window, !- Name
  FixedWindow,                            !- Sub Surface Type
  ,                                       !- Construction Name
  {e798d83c-d300-4ca9-8d63-655f8a659b06}, !- Surface Name
  ,                                       !- Outside Boundary Condition Object
  ,                                       !- View Factor to Ground
  ,                                       !- Frame and Divider Name
  ,                                       !- Multiplier
  ,                                       !- Number of Vertices
  0.0254, 0, 2.60081321311226,            !- X,Y,Z Vertex 1 {m}
  0.0254, 0, 1,                           !- X,Y,Z Vertex 2 {m}
  99.9746, 0, 1,                          !- X,Y,Z Vertex 3 {m}
  99.9746, 0, 2.60081321311226;           !- X,Y,Z Vertex 4 {m}

OS:SubSurface,
  {9a04eba1-0b96-4e50-83c9-1c711db3fbe0}, !- Handle
  Story 1 Core Space Exterior Wall 3 Window, !- Name
  FixedWindow,                            !- Sub Surface Type
  ,                                       !- Construction Name
  {9edcf6cc-bf5a-4af1-8303-de57b54a2a6c}, !- Surface Name
  ,                                       !- Outside Boundary Condition Object
  ,                                       !- View Factor to Ground
  ,                                       !- Frame and Divider Name
  ,                                       !- Multiplier
  ,                                       !- Number of Vertices
  0, 49.9746, 2.60162725328934,           !- X,Y,Z Vertex 1 {m}
  0, 49.9746, 1,                          !- X,Y,Z Vertex 2 {m}
  0, 0.0254000000000048, 1,               !- X,Y,Z Vertex 3 {m}
  0, 0.0254000000000048, 2.60162725328934; !- X,Y,Z Vertex 4 {m}

OS:Schedule:Ruleset,
  {c0c61e6a-1bea-463e-ab53-f4c0b758a6d3}, !- Handle
  Cooling Sch,                            !- Name
  {acb5b972-0200-48e6-abc2-6c5c1ab9b7c9}, !- Schedule Type Limits Name
  {a40df9f0-f333-406a-8f7f-ed508c7d1061}; !- Default Day Schedule Name

OS:Schedule:Day,
  {a40df9f0-f333-406a-8f7f-ed508c7d1061}, !- Handle
  Cooling Sch Default,                    !- Name
  {acb5b972-0200-48e6-abc2-6c5c1ab9b7c9}, !- Schedule Type Limits Name
  ,                                       !- Interpolate to Timestep
  24,                                     !- Hour 1
  0,                                      !- Minute 1
  28;                                     !- Value Until Time 1

OS:Schedule:Ruleset,
  {47cbb14e-35bd-494e-ad98-33037953ee22}, !- Handle
  Heating Sch,                            !- Name
  {acb5b972-0200-48e6-abc2-6c5c1ab9b7c9}, !- Schedule Type Limits Name
  {ea82808f-fd98-4bbf-8bbb-efa8a8ebf53c}; !- Default Day Schedule Name

OS:Schedule:Day,
  {ea82808f-fd98-4bbf-8bbb-efa8a8ebf53c}, !- Handle
  Heating Sch Default,                    !- Name
  {acb5b972-0200-48e6-abc2-6c5c1ab9b7c9}, !- Schedule Type Limits Name
  ,                                       !- Interpolate to Timestep
  24,                                     !- Hour 1
  0,                                      !- Minute 1
  24;                                     !- Value Until Time 1

OS:ThermostatSetpoint:DualSetpoint,
  {1694da5c-7032-433c-b131-7607a62d6004}, !- Handle
  Thermostat Setpoint Dual Setpoint 1,    !- Name
  {47cbb14e-35bd-494e-ad98-33037953ee22}, !- Heating Setpoint Temperature Schedule Name
  {c0c61e6a-1bea-463e-ab53-f4c0b758a6d3}; !- Cooling Setpoint Temperature Schedule Name

OS:ScheduleTypeLimits,
  {acb5b972-0200-48e6-abc2-6c5c1ab9b7c9}, !- Handle
  Temperature,                            !- Name
  ,                                       !- Lower Limit Value
  ,                                       !- Upper Limit Value
  Continuous,                             !- Numeric Type
  Temperature;                            !- Unit Type

OS:DefaultConstructionSet,
  {ba525505-1166-4b43-af03-ad2a941275cc}, !- Handle
  ASHRAE_189.1-2009_ClimateZone 4-5 (mdoff)_ConstSet, !- Name
  {3c0c1671-9387-4992-84b0-fb31e2144b7e}, !- Default Exterior Surface Constructions Name
  {9bac06d1-9f8d-4d74-b49b-21611e94c174}, !- Default Interior Surface Constructions Name
  {9edaed09-6067-425a-9ec0-0a51adc483e7}, !- Default Ground Contact Surface Constructions Name
  {bd83c6b7-96f5-4b00-8416-90477081b95d}, !- Default Exterior SubSurface Constructions Name
  {098985c3-f036-42e1-8350-3fdb0a71bb2c}, !- Default Interior SubSurface Constructions Name
  {544e3c83-116a-4d6d-b1a2-804c74826aff}, !- Interior Partition Construction Name
  ,                                       !- Space Shading Construction Name
  ,                                       !- Building Shading Construction Name
  ,                                       !- Site Shading Construction Name
  ;                                       !- Adiabatic Surface Construction Name

OS:DefaultSurfaceConstructions,
  {3c0c1671-9387-4992-84b0-fb31e2144b7e}, !- Handle
  ASHRAE_189.1-2009_ClimateZone 4-5 (mdoff)_Exterior_DefSurfCons, !- Name
  {f966c33c-72a5-4786-940b-48379f7b2bf0}, !- Floor Construction Name
  {077c0620-01d8-4511-85ba-a7b984eabb42}, !- Wall Construction Name
  {31293a19-0251-4b95-9dc5-9f56c2e8092b}; !- Roof Ceiling Construction Name

OS:DefaultSurfaceConstructions,
  {9bac06d1-9f8d-4d74-b49b-21611e94c174}, !- Handle
  000_Interior_DefSurfCons,               !- Name
  {b4e8d199-5927-495f-a094-b79ad19e6af2}, !- Floor Construction Name
  {fd3e25d1-4cfe-4204-ab06-21a3470b5d94}, !- Wall Construction Name
  {d505ed27-98ac-46d6-8366-2b221f0713e0}; !- Roof Ceiling Construction Name

OS:DefaultSurfaceConstructions,
  {9edaed09-6067-425a-9ec0-0a51adc483e7}, !- Handle
  000_Ground_DefSurfCons,                 !- Name
  {f966c33c-72a5-4786-940b-48379f7b2bf0}, !- Floor Construction Name
  {f966c33c-72a5-4786-940b-48379f7b2bf0}, !- Wall Construction Name
  {f966c33c-72a5-4786-940b-48379f7b2bf0}; !- Roof Ceiling Construction Name

OS:DefaultSubSurfaceConstructions,
  {bd83c6b7-96f5-4b00-8416-90477081b95d}, !- Handle
  ASHRAE_189.1-2009_ClimateZone 4-5 (mdoff)_Exterior_DefSubCons, !- Name
  {9f0f5b99-4ef3-47f4-81d7-a7b949a18e32}, !- Fixed Window Construction Name
  {9f0f5b99-4ef3-47f4-81d7-a7b949a18e32}, !- Operable Window Construction Name
  {aa63e767-c049-43b8-85fc-6f5c3e11194b}, !- Door Construction Name
  {d0c75985-af61-4c00-b776-920ccd31a5a2}, !- Glass Door Construction Name
  ,                                       !- Overhead Door Construction Name
  {d0c75985-af61-4c00-b776-920ccd31a5a2}, !- Skylight Construction Name
  {18deb5be-99f6-4867-8ee3-2704b237aeaf}, !- Tubular Daylight Dome Construction Name
  {18deb5be-99f6-4867-8ee3-2704b237aeaf}; !- Tubular Daylight Diffuser Construction Name

OS:DefaultSubSurfaceConstructions,
  {098985c3-f036-42e1-8350-3fdb0a71bb2c}, !- Handle
  000_Interior_DefSubCons,                !- Name
  {18deb5be-99f6-4867-8ee3-2704b237aeaf}, !- Fixed Window Construction Name
  {18deb5be-99f6-4867-8ee3-2704b237aeaf}, !- Operable Window Construction Name
  {ec43af4c-2114-4e1d-bd52-5dfde94799eb}, !- Door Construction Name
  {d0c75985-af61-4c00-b776-920ccd31a5a2}, !- Glass Door Construction Name
  ,                                       !- Overhead Door Construction Name
  {d0c75985-af61-4c00-b776-920ccd31a5a2}, !- Skylight Construction Name
  {18deb5be-99f6-4867-8ee3-2704b237aeaf}, !- Tubular Daylight Dome Construction Name
  {18deb5be-99f6-4867-8ee3-2704b237aeaf}; !- Tubular Daylight Diffuser Construction Name

OS:Construction,
  {544e3c83-116a-4d6d-b1a2-804c74826aff}, !- Handle
  000_Interior Partition,                 !- Name
  ,                                       !- Surface Rendering Name
  {d205c4cd-6dba-48d2-a073-b02405ecfeb5}; !- Layer 1

OS:Construction,
  {f966c33c-72a5-4786-940b-48379f7b2bf0}, !- Handle
  000_ExtSlabCarpet_4in_ClimateZone 1-8,  !- Name
  ,                                       !- Surface Rendering Name
  {59e3fe0b-216d-4c6c-a3a4-8d4741d883c0}, !- Layer 1
  {1ecb4a80-e8d6-4345-b2fc-c01d8392553b}; !- Layer 2

OS:Construction,
  {077c0620-01d8-4511-85ba-a7b984eabb42}, !- Handle
  ASHRAE_189.1-2009_ExtWall_SteelFrame_ClimateZone 4-8, !- Name
  ,                                       !- Surface Rendering Name
  {fcd35a79-bbc5-46ad-8a30-cff59a2f8ced}, !- Layer 1
  {3caf7a5f-481f-4d3d-84ce-8c07c08380c2}, !- Layer 2
  {10ef723e-7fbf-443a-8360-0e43c616b19a}; !- Layer 3

OS:Construction,
  {31293a19-0251-4b95-9dc5-9f56c2e8092b}, !- Handle
  ASHRAE_189.1-2009_ExtRoof_IEAD_ClimateZone 2-5, !- Name
  ,                                       !- Surface Rendering Name
  {3f0f4e6c-7b14-4129-820b-00d0de3cdba3}, !- Layer 1
  {a51f0e7e-8913-4c13-89a0-04a9beb8d9cc}, !- Layer 2
  {33ebbcca-a39a-4358-b44e-387fd95cb659}; !- Layer 3

OS:Construction,
  {b4e8d199-5927-495f-a094-b79ad19e6af2}, !- Handle
  000_Interior Floor,                     !- Name
  ,                                       !- Surface Rendering Name
  {f8451677-e6f9-4503-b5e6-4986c2899a8b}, !- Layer 1
  {74e43cf6-0873-49dc-80b8-19f87d4d1555}, !- Layer 2
  {3f2d31ff-ed91-4609-bf7c-c645e36292ad}; !- Layer 3

OS:Construction,
  {fd3e25d1-4cfe-4204-ab06-21a3470b5d94}, !- Handle
  000_Interior Wall,                      !- Name
  ,                                       !- Surface Rendering Name
  {97c1900e-933d-4414-a1a5-e24baba35ade}, !- Layer 1
  {a4564f73-caa3-455d-b5e5-5edd41fd7678}, !- Layer 2
  {97c1900e-933d-4414-a1a5-e24baba35ade}; !- Layer 3

OS:Construction,
  {d505ed27-98ac-46d6-8366-2b221f0713e0}, !- Handle
  000_Interior Ceiling,                   !- Name
  ,                                       !- Surface Rendering Name
  {3f2d31ff-ed91-4609-bf7c-c645e36292ad}, !- Layer 1
  {74e43cf6-0873-49dc-80b8-19f87d4d1555}, !- Layer 2
  {f8451677-e6f9-4503-b5e6-4986c2899a8b}; !- Layer 3

OS:Construction,
  {9f0f5b99-4ef3-47f4-81d7-a7b949a18e32}, !- Handle
  ASHRAE_189.1-2009_ExtWindow_ClimateZone 4-5, !- Name
  ,                                       !- Surface Rendering Name
  {9d05bb03-80fe-4eef-b6c2-ddb42b548363}; !- Layer 1

OS:Construction,
  {aa63e767-c049-43b8-85fc-6f5c3e11194b}, !- Handle
  000_Exterior Door,                      !- Name
  ,                                       !- Surface Rendering Name
  {6465606b-e5e9-4129-81bc-e1403ade4d00}, !- Layer 1
  {65e57d6d-6f34-43cd-a92a-3e67d1b2f44e}; !- Layer 2

OS:Construction,
  {d0c75985-af61-4c00-b776-920ccd31a5a2}, !- Handle
  000_Exterior Window,                    !- Name
  ,                                       !- Surface Rendering Name
  {0b63a9e3-cb24-4e82-a521-512c60603e41}, !- Layer 1
  {1ccfbe82-2071-4187-ba0e-95cd128f5780}, !- Layer 2
  {0b63a9e3-cb24-4e82-a521-512c60603e41}; !- Layer 3

OS:Construction,
  {18deb5be-99f6-4867-8ee3-2704b237aeaf}, !- Handle
  000_Interior Window,                    !- Name
  ,                                       !- Surface Rendering Name
  {0b63a9e3-cb24-4e82-a521-512c60603e41}; !- Layer 1

OS:Construction,
  {ec43af4c-2114-4e1d-bd52-5dfde94799eb}, !- Handle
  000_Interior Door,                      !- Name
  ,                                       !- Surface Rendering Name
  {d205c4cd-6dba-48d2-a073-b02405ecfeb5}; !- Layer 1

OS:Material,
  {d205c4cd-6dba-48d2-a073-b02405ecfeb5}, !- Handle
  000_G05 25mm wood,                      !- Name
  MediumSmooth,                           !- Roughness
  0.025399999999999999,                   !- Thickness {m}
  0.14999999999999999,                    !- Conductivity {W/m-K}
  608,                                    !- Density {kg/m3}
  1630;                                   !- Specific Heat {J/kg-K}

OS:Material,
  {59e3fe0b-216d-4c6c-a3a4-8d4741d883c0}, !- Handle
  MAT-CC05 4 HW CONCRETE,                 !- Name
  Rough,                                  !- Roughness
  0.1016,                                 !- Thickness {m}
  1.3109999999999999,                     !- Conductivity {W/m-K}
  2240,                                   !- Density {kg/m3}
  836.8,                                  !- Specific Heat {J/kg-K}
  0.90000000000000002,                    !- Thermal Absorptance
  0.69999999999999996,                    !- Solar Absorptance
  0.69999999999999996;                    !- Visible Absorptance

OS:Material:NoMass,
  {1ecb4a80-e8d6-4345-b2fc-c01d8392553b}, !- Handle
  CP02 CARPET PAD,                        !- Name
  VeryRough,                              !- Roughness
  0.2165,                                 !- Thermal Resistance {m2-K/W}
  0.90000000000000002,                    !- Thermal Absorptance
  0.69999999999999996,                    !- Solar Absorptance
  0.80000000000000004;                    !- Visible Absorptance

OS:Material:NoMass,
  {fcd35a79-bbc5-46ad-8a30-cff59a2f8ced}, !- Handle
  MAT-SHEATH,                             !- Name
  Rough,                                  !- Roughness
  0.36259999999999998,                    !- Thermal Resistance {m2-K/W}
  0.90000000000000002,                    !- Thermal Absorptance
  0.69999999999999996,                    !- Solar Absorptance
  0.69999999999999996;                    !- Visible Absorptance

OS:Material,
  {3caf7a5f-481f-4d3d-84ce-8c07c08380c2}, !- Handle
  Wall Insulation [39],                   !- Name
  MediumRough,                            !- Roughness
  0.11840000000000001,                    !- Thickness {m}
  0.044999999999999998,                   !- Conductivity {W/m-K}
  265,                                    !- Density {kg/m3}
  836.8,                                  !- Specific Heat {J/kg-K}
  0.90000000000000002,                    !- Thermal Absorptance
  0.69999999999999996,                    !- Solar Absorptance
  0.69999999999999996;                    !- Visible Absorptance

OS:Material,
  {10ef723e-7fbf-443a-8360-0e43c616b19a}, !- Handle
  1/2IN Gypsum,                           !- Name
  Smooth,                                 !- Roughness
  0.012699999999999999,                   !- Thickness {m}
  0.16,                                   !- Conductivity {W/m-K}
  784.89999999999998,                     !- Density {kg/m3}
  830,                                    !- Specific Heat {J/kg-K}
  0.90000000000000002,                    !- Thermal Absorptance
  0.92000000000000004,                    !- Solar Absorptance
  0.92000000000000004;                    !- Visible Absorptance

OS:Material,
  {3f0f4e6c-7b14-4129-820b-00d0de3cdba3}, !- Handle
  Roof Membrane,                          !- Name
  VeryRough,                              !- Roughness
  0.0094999999999999998,                  !- Thickness {m}
  0.16,                                   !- Conductivity {W/m-K}
  1121.29,                                !- Density {kg/m3}
  1460,                                   !- Specific Heat {J/kg-K}
  0.90000000000000002,                    !- Thermal Absorptance
  0.69999999999999996,                    !- Solar Absorptance
  0.69999999999999996;                    !- Visible Absorptance

OS:Material,