
OS:Version,
  {fda631df-8edc-48e3-983b-7859bede3a43}, !- Handle
  3.8.0;                                  !- Version Identifier

OS:BuildingStory,
  {adc18371-d0be-4180-a10b-5c9fcbcdad1e}, !- Handle
  Story 1,                                !- Name
  0,                                      !- Nominal Z Coordinate {m}
  4,                                      !- Nominal Floor to Floor Height {m}
  ,                                       !- Default Construction Set Name
  ,                                       !- Default Schedule Set Name
  ;                                       !- Group Rendering Name

OS:Space,
  {813c731d-30a0-4958-ac17-90eabc6dd439}, !- Handle
  Story 1 Core Space,                     !- Name
  ,                                       !- Space Type Name
  ,                                       !- Default Construction Set Name
  ,                                       !- Default Schedule Set Name
  -0,                                     !- Direction of Relative North {deg}
  0,                                      !- X Origin {m}
  0,                                      !- Y Origin {m}
  0,                                      !- Z Origin {m}
  {adc18371-d0be-4180-a10b-5c9fcbcdad1e}, !- Building Story Name
  {42361651-cf49-4f14-bdbf-31044305261f}; !- Thermal Zone Name

OS:Surface,
  {77b110f8-2741-46a7-af2d-592365d9da29}, !- Handle
  Story 1 Core Space Exterior Ground Floor, !- Name
  Floor,                                  !- Surface Type
  ,                                       !- Construction Name
  {813c731d-30a0-4958-ac17-90eabc6dd439}, !- Space Name
  Ground,                                 !- Outside Boundary Condition
  ,                                       !- Outside Boundary Condition Object
  NoSun,                                  !- Sun Exposure
  NoWind,                                 !- Wind Exposure
  ,                                       !- View Factor to Ground
  ,                                       !- Number of Vertices
  0, 0, 0,                                !- X,Y,Z Vertex 1 {m}
  0, 50, 0,                               !- X,Y,Z Vertex 2 {m}
  100, 50, 0,                             !- X,Y,Z Vertex 3 {m}
  100, 0, 0;                              !- X,Y,Z Vertex 4 {m}

OS:Surface,
  {9f967057-b1fc-4972-a5e1-8d265cc25a0e}, !- Handle
  Story 1 Core Space Exterior Wall 2,     !- Name
  Wall,                                   !- Surface Type
  ,                                       !- Construction Name
  {813c731d-30a0-4958-ac17-90eabc6dd439}, !- Space Name
  Outdoors,                               !- Outside Boundary Condition
  ,                                       !- Outside Boundary Condition Object
  SunExposed,                             !- Sun Exposure
  WindExposed,                            !- Wind Exposure
  ,                                       !- View Factor to Ground
  ,                                       !- Number of Vertices
  0, 0, 4,                                !- X,Y,Z Vertex 1 {m}
  0, 50, 4,                               !- X,Y,Z Vertex 2 {m}
  0, 50, 0,                               !- X,Y,Z Vertex 3 {m}
  0, 0, 0;                                !- X,Y,Z Vertex 4 {m}

OS:Surface,
  {01be7379-9c1f-4baa-a37b-800a16599d17}, !- Handle
  Story 1 Core Space Exterior Wall 3,     !- Name
  Wall,                                   !- Surface Type
  ,                                       !- Construction Name
  {813c731d-30a0-4958-ac17-90eabc6dd439}, !- Space Name
  Outdoors,                               !- Outside Boundary Condition
  ,                                       !- Outside Boundary Condition Object
  SunExposed,                             !- Sun Exposure
  WindExposed,                            !- Wind Exposure
  ,                                       !- View Factor to Ground
  ,                                       !- Number of Vertices
  0, 50, 4,                               !- X,Y,Z Vertex 1 {m}
  100, 50, 4,                             !- X,Y,Z Vertex 2 {m}
  100, 50, 0,                             !- X,Y,Z Vertex 3 {m}
  0, 50, 0;                               !- X,Y,Z Vertex 4 {m}

OS:Surface,
  {89aab076-5731-4686-8371-0cfb3657196a}, !- Handle
  Story 1 Core Space Exterior Wall 1,     !- Name
  Wall,                                   !- Surface Type
  ,                                       !- Construction Name
  {813c731d-30a0-4958-ac17-90eabc6dd439}, !- Space Name
  Outdoors,                               !- Outside Boundary Condition
  ,                                       !- Outside Boundary Condition Object
  SunExposed,                             !- Sun Exposure
  WindExposed,                            !- Wind Exposure
  ,                                       !- View Factor to Ground
  ,                                       !- Number of Vertices
  100, 50, 4,                             !- X,Y,Z Vertex 1 {m}
  100, 0, 4,                              !- X,Y,Z Vertex 2 {m}
  100, 0, 0,                              !- X,Y,Z Vertex 3 {m}
  100, 50, 0;                             !- X,Y,Z Vertex 4 {m}

OS:Surface,
  {9cb8113b-828b-4bee-8aab-bf047f414804}, !- Handle
  Story 1 Core Space Exterior Wall,       !- Name
  Wall,                                   !- Surface Type
  ,                                       !- Construction Name
  {813c731d-30a0-4958-ac17-90eabc6dd439}, !- Space Name
  Outdoors,                               !- Outside Boundary Condition
  ,                                       !- Outside Boundary Condition Object
  SunExposed,                             !- Sun Exposure
  WindExposed,                            !- Wind Exposure
  ,                                       !- View Factor to Ground
  ,                                       !- Number of Vertices
  100, 0, 4,                              !- X,Y,Z Vertex 1 {m}
  0, 0, 4,                                !- X,Y,Z Vertex 2 {m}
  0, 0, 0,                                !- X,Y,Z Vertex 3 {m}
  100, 0, 0;                              !- X,Y,Z Vertex 4 {m}

OS:Surface,
  {9b0a98a3-ec69-41c7-b804-0ef4536d80c0}, !- Handle
  Story 1 Core Space Exterior Roof,       !- Name
  RoofCeiling,                            !- Surface Type
  ,                                       !- Construction Name
  {813c731d-30a0-4958-ac17-90eabc6dd439}, !- Space Name
  Outdoors,                               !- Outside Boundary Condition
  ,                                       !- Outside Boundary Condition Object
  SunExposed,                             !- Sun Exposure
  WindExposed,                            !- Wind Exposure
  ,                                       !- View Factor to Ground
  ,                                       !- Number of Vertices
  100, 0, 4,                              !- X,Y,Z Vertex 1 {m}
  100, 50, 4,                             !- X,Y,Z Vertex 2 {m}
  0, 50, 4,                               !- X,Y,Z Vertex 3 {m}
  0, 0, 4;                                !- X,Y,Z Vertex 4 {m}

OS:ThermalZone,
  {42361651-cf49-4f14-bdbf-31044305261f}, !- Handle
  Story 1 Core Thermal Zone,              !- Name
  ,                                       !- Multiplier
  ,                                       !- Ceiling Height {m}
  ,                                       !- Volume {m3}
  ,                                       !- Floor Area {m2}
  ,                                       !- Zone Inside Convection Algorithm
  ,                                       !- Zone Outside Convection Algorithm
  ,                                       !- Zone Conditioning Equipment List Name
  {81672c11-a204-4425-a8d1-b76cdcd70666}, !- Zone Air Inlet Port List
  {1bc68753-c518-4b2a-838f-8bd5689adc42}, !- Zone Air Exhaust Port List
  {c70714b5-9521-4939-8961-6d96bbd24478}, !- Zone Air Node Name
  {6394fda2-c967-4677-8be6-42ec50b76530}, !- Zone Return Air Port List
  ,                                       !- Primary Daylighting Control Name
  ,                                       !- Fraction of Zone Controlled by Primary Daylighting Control
  ,                                       !- Secondary Daylighting Control Name
  ,                                       !- Fraction of Zone Controlled by Secondary Daylighting Control
  ,                                       !- Illuminance Map Name
  ,                                       !- Group Rendering Name
  {134ce27a-4c5e-4359-8bb7-4cff60118832}, !- Thermostat Name
  No;                                     !- Use Ideal Air Loads

OS:Node,
  {be6862c9-f603-405e-bcff-dade810b66ab}, !- Handle
  Node 1,                                 !- Name
  {c70714b5-9521-4939-8961-6d96bbd24478}, !- Inlet Port
  ;                                       !- Outlet Port

OS:Connection,
  {c70714b5-9521-4939-8961-6d96bbd24478}, !- Handle
  {42361651-cf49-4f14-bdbf-31044305261f}, !- Source Object
  11,                                     !- Outlet Port
  {be6862c9-f603-405e-bcff-dade810b66ab}, !- Target Object
  2;                                      !- Inlet Port

OS:PortList,
  {81672c11-a204-4425-a8d1-b76cdcd70666}, !- Handle
  {42361651-cf49-4f14-bdbf-31044305261f}, !- HVAC Component
  {40d264b4-b364-46a5-9098-d4ca1dcb0dbc}; !- Port 1

OS:PortList,
  {1bc68753-c518-4b2a-838f-8bd5689adc42}, !- Handle
  {42361651-cf49-4f14-bdbf-31044305261f}; !- HVAC Component

OS:PortList,
  {6394fda2-c967-4677-8be6-42ec50b76530}, !- Handle
  {42361651-cf49-4f14-bdbf-31044305261f}, !- HVAC Component
  {0fd74ace-9cbc-40ae-beed-fcc5049c9bde}; !- Port 1

OS:Sizing:Zone,
  {180f86f2-339d-49d9-8d0e-0ef7feca37ce}, !- Handle
  {42361651-cf49-4f14-bdbf-31044305261f}, !- Zone or ZoneList Name
  SupplyAirTemperature,                   !- Zone Cooling Design Supply Air Temperature Input Method
  14,                                     !- Zone Cooling Design Supply Air Temperature {C}
  11.11,                                  !- Zone Cooling Design Supply Air Temperature Difference {deltaC}
  SupplyAirTemperature,                   !- Zone Heating Design Supply Air Temperature Input Method
  40,                                     !- Zone Heating Design Supply Air Temperature {C}
  11.11,                                  !- Zone Heating Design Supply Air Temperature Difference {deltaC}
  0.0085,                                 !- Zone Cooling Design Supply Air Humidity Ratio {kg-H2O/kg-air}
  0.008,                                  !- Zone Heating Design Supply Air Humidity Ratio {kg-H2O/kg-air}
  ,                                       !- Zone Heating Sizing Factor
  ,                                       !- Zone Cooling Sizing Factor
  DesignDay,                              !- Cooling Design Air Flow Method
  ,                                       !- Cooling Design Air Flow Rate {m3/s}
  ,                                       !- Cooling Minimum Air Flow per Zone Floor Area {m3/s-m2}
  ,                                       !- Cooling Minimum Air Flow {m3/s}
  ,                                       !- Cooling Minimum Air Flow Fraction
  DesignDay,                              !- Heating Design Air Flow Method
  ,                                       !- Heating Design Air Flow Rate {m3/s}
  ,                                       !- Heating Maximum Air Flow per Zone Floor Area {m3/s-m2}
  ,                                       !- Heating Maximum Air Flow {m3/s}
  ,                                       !- Heating Maximum Air Flow Fraction
  No,                                     !- Account for Dedicated Outdoor Air System
  NeutralSupplyAir,                       !- Dedicated Outdoor Air System Control Strategy
  autosize,                               !- Dedicated Outdoor Air Low Setpoint Temperature for Design {C}
  autosize,                               !- Dedicated Outdoor Air High Setpoint Temperature for Design {C}
  Sensible Load Only No Latent Load,      !- Zone Load Sizing Method
  HumidityRatioDifference,                !- Zone Latent Cooling Design Supply Air Humidity Ratio Input Method
  ,                                       !- Zone Dehumidification Design Supply Air Humidity Ratio {kgWater/kgDryAir}
  0.005,                                  !- Zone Cooling Design Supply Air Humidity Ratio Difference {kgWater/kgDryAir}
  HumidityRatioDifference,                !- Zone Latent Heating Design Supply Air Humidity Ratio Input Method
  ,                                       !- Zone Humidification Design Supply Air Humidity Ratio {kgWater/kgDryAir}
  0.005;                                  !- Zone Humidification Design Supply Air Humidity Ratio Difference {kgWater/kgDryAir}

OS:ZoneHVAC:EquipmentList,
  {a84f01ee-9394-44aa-ad30-88106f6e6037}, !- Handle
  Zone HVAC Equipment List 1,             !- Name
  {42361651-cf49-4f14-bdbf-31044305261f}, !- Thermal Zone
  ,                                       !- Load Distribution Scheme
  {0667c432-37d4-46b8-ae4b-e50f475617ba}, !- Zone Equipment 1
  1,                                      !- Zone Equipment Cooling Sequence 1
  1,                                      !- Zone Equipment Heating or No-Load Sequence 1
  ,                                       !- Zone Equipment Sequential Cooling Fraction Schedule Name 1
  ;                                       !- Zone Equipment Sequential Heating Fraction Schedule Name 1

OS:SubSurface,
  {411f129f-e6db-4236-9468-862d2bc5d436}, !- Handle
  Story 1 Core Space Exterior Wall Window, !- Name
  FixedWindow,                            !- Sub Surface Type
  ,                                       !- Construction Name
  {9cb8113b-828b-4bee-8aab-bf047f414804}, !- Surface Name
  ,                                       !- Outside Boundary Condition Object
  ,                                       !- View Factor to Ground
  ,                                       !- Frame and Divider Name
  ,                                       !- Multiplier
  ,                                       !- Number of Vertices
  0.0254, 0, 2.60081321311226,            !- X,Y,Z Vertex 1 {m}
  0.0254, 0, 1,                           !- X,Y,Z Vertex 2 {m}
  99.9746, 0, 1,                          !- X,Y,Z Vertex 3 {m}
  99.9746, 0, 2.60081321311226;           !- X,Y,Z Vertex 4 {m}

OS:SubSurface,
  {c10277a3-93e4-4707-91b0-777dfc3a4027}, !- Handle
  Story 1 Core Space Exterior Wall 1 Window, !- Name
  FixedWindow,                            !- Sub Surface Type
  ,                                       !- Construction Name
  {89aab076-5731-4686-8371-0cfb3657196a}, !- Surface Name
  ,                                       !- Outside Boundary Condition Object
  ,                                       !- View Factor to Ground
  ,                                       !- Frame and Divider Name
  ,                                       !- Multiplier
  ,                                       !- Number of Vertices
  100, 0.0254, 2.60162725328934,          !- X,Y,Z Vertex 1 {m}
  100, 0.0254, 1,                         !- X,Y,Z Vertex 2 {m}
  100, 49.9746, 1,                        !- X,Y,Z Vertex 3 {m}
  100, 49.9746, 2.60162725328934;         !- X,Y,Z Vertex 4 {m}

OS:SubSurface,
  {0cf87331-1a8b-4733-87e9-5baafe2913b2}, !- Handle
  Story 1 Core Space Exterior Wall 3 Window, !- Name
  FixedWindow,                            !- Sub Surface Type
  ,                                       !- Construction Name
  {01be7379-9c1f-4baa-a37b-800a16599d17}, !- Surface Name
  ,                                       !- Outside Boundary Condition Object
  ,                                       !- View Factor to Ground
  ,                                       !- Frame and Divider Name
  ,                                       !- Multiplier
  ,                                       !- Number of Vertices
  99.9746, 50, 2.60081321311226,          !- X,Y,Z Vertex 1 {m}
  99.9746, 50, 1,                         !- X,Y,Z Vertex 2 {m}
  0.0253999999999905, 50, 1,              !- X,Y,Z Vertex 3 {m}
  0.0253999999999905, 50, 2.60081321311226; !- X,Y,Z Vertex 4 {m}

OS:SubSurface,
  {10e04ccd-2521-4f20-8e6c-72cb65da490c}, !- Handle
  Story 1 Core Space Exterior Wall 2 Window, !- Name
  FixedWindow,                            !- Sub Surface Type
  ,                                       !- Construction Name
  {9f967057-b1fc-4972-a5e1-8d265cc25a0e}, !- Surface Name
  ,                                       !- Outside Boundary Condition Object
  ,                                       !- View Factor to Ground
  ,                                       !- Frame and Divider Name
  ,                                       !- Multiplier
  ,                                       !- Number of Vertices
  0, 49.9746, 2.60162725328934,           !- X,Y,Z Vertex 1 {m}
  0, 49.9746, 1,                          !- X,Y,Z Vertex 2 {m}
  0, 0.0254000000000048, 1,               !- X,Y,Z Vertex 3 {m}
  0, 0.0254000000000048, 2.60162725328934; !- X,Y,Z Vertex 4 {m}

OS:Schedule:Ruleset,
  {caf9ef6a-170c-4340-a855-c5be6736e9e1}, !- Handle
  Cooling Sch,                            !- Name
  {c445fca8-24e2-4416-8c2c-76d875f893fc}, !- Schedule Type Limits Name
  {71fef869-08d8-48d8-8f7e-212b2e1b3cfd}; !- Default Day Schedule Name

OS:Schedule:Day,
  {71fef869-08d8-48d8-8f7e-212b2e1b3cfd}, !- Handle
  Cooling Sch Default,                    !- Name
  {c445fca8-24e2-4416-8c2c-76d875f893fc}, !- Schedule Type Limits Name
  ,                                       !- Interpolate to Timestep
  24,                                     !- Hour 1
  0,                                      !- Minute 1
  26;                                     !- Value Until Time 1

OS:Schedule:Ruleset,
  {9d83c61b-3097-447d-b533-66f4bec84384}, !- Handle
  Heating Sch,                            !- Name
  {c445fca8-24e2-4416-8c2c-76d875f893fc}, !- Schedule Type Limits Name
  {5798a81e-ffaa-4166-91a1-b52633eca41a}; !- Default Day Schedule Name

OS:Schedule:Day,
  {5798a81e-ffaa-4166-91a1-b52633eca41a}, !- Handle
  Heating Sch Default,                    !- Name
  {c445fca8-24e2-4416-8c2c-76d875f893fc}, !- Schedule Type Limits Name
  ,                                       !- Interpolate to Timestep
  24,                                     !- Hour 1
  0,                                      !- Minute 1
  19;                                     !- Value Until Time 1

OS:ThermostatSetpoint:DualSetpoint,
  {134ce27a-4c5e-4359-8bb7-4cff60118832}, !- Handle
  Thermostat Setpoint Dual Setpoint 1,    !- Name
  {9d83c61b-3097-447d-b533-66f4bec84384}, !- Heating Setpoint Temperature Schedule Name
  {caf9ef6a-170c-4340-a855-c5be6736e9e1}; !- Cooling Setpoint Temperature Schedule Name

OS:ScheduleTypeLimits,
  {c445fca8-24e2-4416-8c2c-76d875f893fc}, !- Handle
  Temperature,                            !- Name
  ,                                       !- Lower Limit Value
  ,                                       !- Upper Limit Value
  Continuous,                             !- Numeric Type
  Temperature;                            !- Unit Type

OS:DefaultConstructionSet,
  {c8da4460-025a-4e1e-a6b9-72ed975f0882}, !- Handle
  ASHRAE_189.1-2009_ClimateZone 4-5 (mdoff)_ConstSet, !- Name
  {da5fb32d-2a31-447c-9007-fb072b3b9bac}, !- Default Exterior Surface Constructions Name
  {40e0f617-0d89-4301-9977-f85075d7ec76}, !- Default Interior Surface Constructions Name
  {7c68336a-9d5a-4860-b1c0-3bc3c3cc6e1a}, !- Default Ground Contact Surface Constructions Name
  {1369f64d-866c-4e6e-92eb-5c8acb94cc09}, !- Default Exterior SubSurface Constructions Name
  {39730ee5-6445-4738-b58f-315b574eff6d}, !- Default Interior SubSurface Constructions Name
  {c2b7b2cf-75ac-4814-a026-8b6e63095fd8}, !- Interior Partition Construction Name
  ,                                       !- Space Shading Construction Name
  ,                                       !- Building Shading Construction Name
  ,                                       !- Site Shading Construction Name
  ;                                       !- Adiabatic Surface Construction Name

OS:DefaultSurfaceConstructions,
  {da5fb32d-2a31-447c-9007-fb072b3b9bac}, !- Handle
  ASHRAE_189.1-2009_ClimateZone 4-5 (mdoff)_Exterior_DefSurfCons, !- Name
  {8377abca-83b7-40ba-838d-bf41cc016210}, !- Floor Construction Name
  {ad31e863-81c5-49c7-bd0e-4dee541e2dbe}, !- Wall Construction Name
  {552f0a71-29a2-48c8-92a6-58f079a0c775}; !- Roof Ceiling Construction Name

OS:DefaultSurfaceConstructions,
  {40e0f617-0d89-4301-9977-f85075d7ec76}, !- Handle
  000_Interior_DefSurfCons,               !- Name
  {6c3c85e3-14c8-48d3-b100-bd9212e727d4}, !- Floor Construction Name
  {4ba35796-5255-4bd6-9955-e7e1811324e7}, !- Wall Construction Name
  {19b835c4-d78b-435d-9c25-eaf78bb30550}; !- Roof Ceiling Construction Name

OS:DefaultSurfaceConstructions,
  {7c68336a-9d5a-4860-b1c0-3bc3c3cc6e1a}, !- Handle
  000_Ground_DefSurfCons,                 !- Name
  {8377abca-83b7-40ba-838d-bf41cc016210}, !- Floor Construction Name
  {8377abca-83b7-40ba-838d-bf41cc016210}, !- Wall Construction Name
  {8377abca-83b7-40ba-838d-bf41cc016210}; !- Roof Ceiling Construction Name

OS:DefaultSubSurfaceConstructions,
  {1369f64d-866c-4e6e-92eb-5c8acb94cc09}, !- Handle
  ASHRAE_189.1-2009_ClimateZone 4-5 (mdoff)_Exterior_DefSubCons, !- Name
  {52816a89-90e7-40bd-a7aa-91c2969a5ce7}, !- Fixed Window Construction Name
  {52816a89-90e7-40bd-a7aa-91c2969a5ce7}, !- Operable Window Construction Name
  {0d82e70a-5558-4d96-bba5-58ff5d3b0c5b}, !- Door Construction Name
  {c0d907fb-3f8e-496e-a91c-0e71ced5258a}, !- Glass Door Construction Name
  ,                                       !- Overhead Door Construction Name
  {c0d907fb-3f8e-496e-a91c-0e71ced5258a}, !- Skylight Construction Name
  {6b78ad7a-0bbd-4ddd-9072-1660a21f861b}, !- Tubular Daylight Dome Construction Name
  {6b78ad7a-0bbd-4ddd-9072-1660a21f861b}; !- Tubular Daylight Diffuser Construction Name

OS:DefaultSubSurfaceConstructions,
  {39730ee5-6445-4738-b58f-315b574eff6d}, !- Handle
  000_Interior_DefSubCons,                !- Name
  {6b78ad7a-0bbd-4ddd-9072-1660a21f861b}, !- Fixed Window Construction Name
  {6b78ad7a-0bbd-4ddd-9072-1660a21f861b}, !- Operable Window Construction Name
  {a0e7bb30-e277-4ab0-916a-9a8321e9af18}, !- Door Construction Name
  {c0d907fb-3f8e-496e-a91c-0e71ced5258a}, !- Glass Door Construction Name
  ,                                       !- Overhead Door Construction Name
  {c0d907fb-3f8e-496e-a91c-0e71ced5258a}, !- Skylight Construction Name
  {6b78ad7a-0bbd-4ddd-9072-1660a21f861b}, !- Tubular Daylight Dome Construction Name
  {6b78ad7a-0bbd-4ddd-9072-1660a21f861b}; !- Tubular Daylight Diffuser Construction Name

OS:Construction,
  {c2b7b2cf-75ac-4814-a026-8b6e63095fd8}, !- Handle
  000_Interior Partition,                 !- Name
  ,                                       !- Surface Rendering Name
  {eaa6ad05-c46a-4af0-8008-86b7598cb275}; !- Layer 1

OS:Construction,
  {8377abca-83b7-40ba-838d-bf41cc016210}, !- Handle
  000_ExtSlabCarpet_4in_ClimateZone 1-8,  !- Name
  ,                                       !- Surface Rendering Name
  {886bd5b5-c609-4d8c-9922-0765470204fd}, !- Layer 1
  {3397a74d-027d-47f6-90c6-7d485920c6f8}; !- Layer 2

OS:Construction,
  {ad31e863-81c5-49c7-bd0e-4dee541e2dbe}, !- Handle
  ASHRAE_189.1-2009_ExtWall_SteelFrame_ClimateZone 4-8, !- Name
  ,                                       !- Surface Rendering Name
  {5acc37f5-101b-4abf-8441-6bfcfe487380}, !- Layer 1
  {b8f26d81-c9c0-4b79-978d-5f70c21151c1}, !- Layer 2
  {6b86c6a1-f45d-498b-87cb-58da7d9b10bf}; !- Layer 3

OS:Construction,
  {552f0a71-29a2-48c8-92a6-58f079a0c775}, !- Handle
  ASHRAE_189.1-2009_ExtRoof_IEAD_ClimateZone 2-5, !- Name
  ,                                       !- Surface Rendering Name
  {b6bac5da-53d0-4fd2-9b2a-252c32481119}, !- Layer 1
  {e35d8b7e-2878-4ed1-8e81-0fd30d1347c5}, !- Layer 2
  {39fc28e5-9e35-4443-8c06-8f0ec1dd6a0d}; !- Layer 3

OS:Construction,
  {6c3c85e3-14c8-48d3-b100-bd9212e727d4}, !- Handle
  000_Interior Floor,                     !- Name
  ,                                       !- Surface Rendering Name
  {85fd2159-ed02-4a5d-b3d6-53599b285710}, !- Layer 1
  {103a597f-ddc9-4b0e-8c93-eb1d2c4b68a6}, !- Layer 2
  {a75ddd9c-e60c-4c15-a00f-ccb11ecab0dd}; !- Layer 3

OS:Construction,
  {4ba35796-5255-4bd6-9955-e7e1811324e7}, !- Handle
  000_Interior Wall,                      !- Name
  ,                                       !- Surface Rendering Name
  {2e071eaa-be00-4121-a6f8-0663f3c5cb2a}, !- Layer 1
  {c4d05020-48e1-4480-a6c2-a5e8d62d1140}, !- Layer 2
  {2e071eaa-be00-4121-a6f8-0663f3c5cb2a}; !- Layer 3

OS:Construction,
  {19b835c4-d78b-435d-9c25-eaf78bb30550}, !- Handle
  000_Interior Ceiling,                   !- Name
  ,                                       !- Surface Rendering Name
  {a75ddd9c-e60c-4c15-a00f-ccb11ecab0dd}, !- Layer 1
  {103a597f-ddc9-4b0e-8c93-eb1d2c4b68a6}, !- Layer 2
  {85fd2159-ed02-4a5d-b3d6-53599b285710}; !- Layer 3

OS:Construction,
  {52816a89-90e7-40bd-a7aa-91c2969a5ce7}, !- Handle
  ASHRAE_189.1-2009_ExtWindow_ClimateZone 4-5, !- Name
  ,                                       !- Surface Rendering Name
  {c69785c0-3fa2-47e8-9428-ffcb80d81ee4}; !- Layer 1

OS:Construction,
  {0d82e70a-5558-4d96-bba5-58ff5d3b0c5b}, !- Handle
  000_Exterior Door,                      !- Name
  ,                                       !- Surface Rendering Name
  {59126a96-5abe-4fab-9e35-e042b46e2df5}, !- Layer 1
  {67974c72-e62f-4235-9643-1cedc4ad236a}; !- Layer 2

OS:Construction,
  {c0d907fb-3f8e-496e-a91c-0e71ced5258a}, !- Handle
  000_Exterior Window,                    !- Name
  ,                                       !- Surface Rendering Name
  {587c7193-9fe0-440a-baf7-f81cfe597471}, !- Layer 1
  {0eed312c-b6b9-4272-aaec-937be29e8865}, !- Layer 2
  {587c7193-9fe0-440a-baf7-f81cfe597471}; !- Layer 3

OS:Construction,
  {6b78ad7a-0bbd-4ddd-9072-1660a21f861b}, !- Handle
  000_Interior Window,                    !- Name
  ,                                       !- Surface Rendering Name
  {587c7193-9fe0-440a-baf7-f81cfe597471}; !- Layer 1

OS:Construction,
  {a0e7bb30-e277-4ab0-916a-9a8321e9af18}, !- Handle
  000_Interior Door,                      !- Name
  ,                                       !- Surface Rendering Name
  {eaa6ad05-c46a-4af0-8008-86b7598cb275}; !- Layer 1

OS:Material,
  {eaa6ad05-c46a-4af0-8008-86b7598cb275}, !- Handle
  000_G05 25mm wood,                      !- Name
  MediumSmooth,                           !- Roughness
  0.025399999999999999,                   !- Thickness {m}
  0.14999999999999999,                    !- Conductivity {W/m-K}
  608,                                    !- Density {kg/m3}
  1630;                                   !- Specific Heat {J/kg-K}

OS:Material,
  {886bd5b5-c609-4d8c-9922-0765470204fd}, !- Handle
  MAT-CC05 4 HW CONCRETE,                 !- Name
  Rough,                                  !- Roughness
  0.1016,                                 !- Thickness {m}
  1.3109999999999999,                     !- Conductivity {W/m-K}
  2240,                                   !- Density {kg/m3}
  836.8,                                  !- Specific Heat {J/kg-K}
  0.90000000000000002,                    !- Thermal Absorptance
  0.69999999999999996,                    !- Solar Absorptance
  0.69999999999999996;                    !- Visible Absorptance

OS:Material:NoMass,
  {3397a74d-027d-47f6-90c6-7d485920c6f8}, !- Handle
  CP02 CARPET PAD,                        !- Name
  VeryRough,                              !- Roughness
  0.2165,                                 !- Thermal Resistance {m2-K/W}
  0.90000000000000002,                    !- Thermal Absorptance
  0.69999999999999996,                    !- Solar Absorptance
  0.80000000000000004;                    !- Visible Absorptance

OS:Material:NoMass,
  {5acc37f5-101b-4abf-8441-6bfcfe487380}, !- Handle
  MAT-SHEATH,                             !- Name
  Rough,                                  !- Roughness
  0.36259999999999998,                    !- Thermal Resistance {m2-K/W}
  0.90000000000000002,                    !- Thermal Absorptance
  0.69999999999999996,                    !- Solar Absorptance
  0.69999999999999996;                    !- Visible Absorptance

OS:Material,
  {b8f26d81-c9c0-4b79-978d-5f70c21151c1}, !- Handle
  Wall Insulation [39],                   !- Name
  MediumRough,                            !- Roughness
  0.11840000000000001,                    !- Thickness {m}
  0.044999999999999998,                   !- Conductivity {W/m-K}
  265,                                    !- Density {kg/m3}
  836.8,                                  !- Specific Heat {J/kg-K}
  0.90000000000000002,                    !- Thermal Absorptance
  0.69999999999999996,                    !- Solar Absorptance
  0.69999999999999996;                    !- Visible Absorptance

OS:Material,
  {6b86c6a1-f45d-498b-87cb-58da7d9b10bf}, !- Handle
  1/2IN Gypsum,                           !- Name
  Smooth,                                 !- Roughness
  0.012699999999999999,                   !- Thickness {m}
  0.16,                                   !- Conductivity {W/m-K}
  784.89999999999998,                     !- Density {kg/m3}
  830,                                    !- Specific Heat {J/kg-K}
  0.90000000000000002,                    !- Thermal Absorptance
  0.92000000000000004,                    !- Solar Absorptance
  0.92000000000000004;                    !- Visible Absorptance

OS:Material,
  {b6bac5da-53d0-4fd2-9b2a-252c32481119}, !- Handle
  Roof Membrane,                          !- Name
  VeryRough,                              !- Roughness
  0.0094999999999999998,                  !- Thickness {m}
  0.16,                                   !- Conductivity {W/m-K}
  1121.29,                                !- Density {kg/m3}
  1460,                                   !- Specific Heat {J/kg-K}
  0.90000000000000002,                    !- Thermal Absorptance
  0.69999999999999996,                    !- Solar Absorptance
  0.69999999999999996;                    !- Visible Absorptance

OS:Material,