
OS:Version,
  {561198ff-dc78-4398-ac3b-108bc565c9c7}, !- Handle
  3.6.0;                                  !- Version Identifier

OS:BuildingStory,
  {10c3917b-f164-4cdc-aac4-f488c2329c2c}, !- Handle
  Story 1,                                !- Name
  0,                                      !- Nominal Z Coordinate {m}
  4,                                      !- Nominal Floor to Floor Height {m}
  ,                                       !- Default Construction Set Name
  ,                                       !- Default Schedule Set Name
  ;                                       !- Group Rendering Name

OS:Space,
  {dc90c888-93de-4c04-816a-8cd0e2070a9d}, !- Handle
  Story 1 Core Space,                     !- Name
  ,                                       !- Space Type Name
  ,                                       !- Default Construction Set Name
  ,                                       !- Default Schedule Set Name
  -0,                                     !- Direction of Relative North {deg}
  0,                                      !- X Origin {m}
  0,                                      !- Y Origin {m}
  0,                                      !- Z Origin {m}
  {10c3917b-f164-4cdc-aac4-f488c2329c2c}, !- Building Story Name
  {7fa95077-8fc4-4a6e-9732-5029903d63c3}; !- Thermal Zone Name

OS:Surface,
  {0cf60e4a-8ea2-4231-baf1-9298172d6e17}, !- Handle
  Story 1 Core Space Exterior Ground Floor, !- Name
  Floor,                                  !- Surface Type
  ,                                       !- Construction Name
  {dc90c888-93de-4c04-816a-8cd0e2070a9d}, !- Space Name
  Ground,                                 !- Outside Boundary Condition
  ,                                       !- Outside Boundary Condition Object
  NoSun,                                  !- Sun Exposure
  NoWind,                                 !- Wind Exposure
  ,                                       !- View Factor to Ground
  ,                                       !- Number of Vertices
  0, 0, 0,                                !- X,Y,Z Vertex 1 {m}
  0, 50, 0,                               !- X,Y,Z Vertex 2 {m}
  100, 50, 0,                             !- X,Y,Z Vertex 3 {m}
  100, 0, 0;                              !- X,Y,Z Vertex 4 {m}

OS:Surface,
  {bcc9e38e-24df-46ff-b3d3-559c5538b62e}, !- Handle
  Story 1 Core Space Exterior Wall 3,     !- Name
  Wall,                                   !- Surface Type
  ,                                       !- Construction Name
  {dc90c888-93de-4c04-816a-8cd0e2070a9d}, !- Space Name
  Outdoors,                               !- Outside Boundary Condition
  ,                                       !- Outside Boundary Condition Object
  SunExposed,                             !- Sun Exposure
  WindExposed,                            !- Wind Exposure
  ,                                       !- View Factor to Ground
  ,                                       !- Number of Vertices
  0, 50, 4,                               !- X,Y,Z Vertex 1 {m}
  0, 50, 0,                               !- X,Y,Z Vertex 2 {m}
  0, 0, 0,                                !- X,Y,Z Vertex 3 {m}
  0, 0, 4;                                !- X,Y,Z Vertex 4 {m}

OS:Surface,
  {6c4875e3-7d01-4ee8-888a-e1b1f345609e}, !- Handle
  Story 1 Core Space Exterior Wall 2,     !- Name
  Wall,                                   !- Surface Type
  ,                                       !- Construction Name
  {dc90c888-93de-4c04-816a-8cd0e2070a9d}, !- Space Name
  Outdoors,                               !- Outside Boundary Condition
  ,                                       !- Outside Boundary Condition Object
  SunExposed,                             !- Sun Exposure
  WindExposed,                            !- Wind Exposure
  ,                                       !- View Factor to Ground
  ,                                       !- Number of Vertices
  100, 50, 4,                             !- X,Y,Z Vertex 1 {m}
  100, 50, 0,                             !- X,Y,Z Vertex 2 {m}
  0, 50, 0,                               !- X,Y,Z Vertex 3 {m}
  0, 50, 4;                               !- X,Y,Z Vertex 4 {m}

OS:Surface,
  {06e19d47-373b-4c34-803c-71d4d22abb5b}, !- Handle
  Story 1 Core Space Exterior Wall 1,     !- Name
  Wall,                                   !- Surface Type
  ,                                       !- Construction Name
  {dc90c888-93de-4c04-816a-8cd0e2070a9d}, !- Space Name
  Outdoors,                               !- Outside Boundary Condition
  ,                                       !- Outside Boundary Condition Object
  SunExposed,                             !- Sun Exposure
  WindExposed,                            !- Wind Exposure
  ,                                       !- View Factor to Ground
  ,                                       !- Number of Vertices
  100, 0, 4,                              !- X,Y,Z Vertex 1 {m}
  100, 0, 0,                              !- X,Y,Z Vertex 2 {m}
  100, 50, 0,                             !- X,Y,Z Vertex 3 {m}
  100, 50, 4;                             !- X,Y,Z Vertex 4 {m}

OS:Surface,
  {2eb8580f-4181-4b62-8d61-061a0a3cac93}, !- Handle
  Story 1 Core Space Exterior Wall,       !- Name
  Wall,                                   !- Surface Type
  ,                                       !- Construction Name
  {dc90c888-93de-4c04-816a-8cd0e2070a9d}, !- Space Name
  Outdoors,                               !- Outside Boundary Condition
  ,                                       !- Outside Boundary Condition Object
  SunExposed,                             !- Sun Exposure
  WindExposed,                            !- Wind Exposure
  ,                                       !- View Factor to Ground
  ,                                       !- Number of Vertices
  0, 0, 4,                                !- X,Y,Z Vertex 1 {m}
  0, 0, 0,                                !- X,Y,Z Vertex 2 {m}
  100, 0, 0,                              !- X,Y,Z Vertex 3 {m}
  100, 0, 4;                              !- X,Y,Z Vertex 4 {m}

OS:Surface,
  {b5e93497-c1d9-47ba-865d-022a06a7758a}, !- Handle
  Story 1 Core Space Exterior Roof,       !- Name
  RoofCeiling,                            !- Surface Type
  ,                                       !- Construction Name
  {dc90c888-93de-4c04-816a-8cd0e2070a9d}, !- Space Name
  Outdoors,                               !- Outside Boundary Condition
  ,                                       !- Outside Boundary Condition Object
  SunExposed,                             !- Sun Exposure
  WindExposed,                            !- Wind Exposure
  ,                                       !- View Factor to Ground
  ,                                       !- Number of Vertices
  100, 0, 4,                              !- X,Y,Z Vertex 1 {m}
  100, 50, 4,                             !- X,Y,Z Vertex 2 {m}
  0, 50, 4,                               !- X,Y,Z Vertex 3 {m}
  0, 0, 4;                                !- X,Y,Z Vertex 4 {m}

OS:ThermalZone,
  {7fa95077-8fc4-4a6e-9732-5029903d63c3}, !- Handle
  Story 1 Core Thermal Zone,              !- Name
  ,                                       !- Multiplier
  ,                                       !- Ceiling Height {m}
  ,                                       !- Volume {m3}
  ,                                       !- Floor Area {m2}
  ,                                       !- Zone Inside Convection Algorithm
  ,                                       !- Zone Outside Convection Algorithm
  ,                                       !- Zone Conditioning Equipment List Name
  {9cd0bd41-30c0-4a5c-ba04-8ce57d6574bd}, !- Zone Air Inlet Port List
  {a68a175c-6ba9-4c52-84f0-23700ff82bb7}, !- Zone Air Exhaust Port List
  {7c103cc8-592a-45c6-942e-2eb223a73573}, !- Zone Air Node Name
  {374b5b0b-fa3c-46f8-bf94-3ff9683cecf6}, !- Zone Return Air Port List
  ,                                       !- Primary Daylighting Control Name
  ,                                       !- Fraction of Zone Controlled by Primary Daylighting Control
  ,                                       !- Secondary Daylighting Control Name
  ,                                       !- Fraction of Zone Controlled by Secondary Daylighting Control
  ,                                       !- Illuminance Map Name
  ,                                       !- Group Rendering Name
  {ea35426b-4a08-4a2f-9c18-d7b3689131ee}, !- Thermostat Name
  No;                                     !- Use Ideal Air Loads

OS:Node,
  {055dcbb8-08b3-4e91-897f-05b23d0030c0}, !- Handle
  Node 1,                                 !- Name
  {7c103cc8-592a-45c6-942e-2eb223a73573}, !- Inlet Port
  ;                                       !- Outlet Port

OS:Connection,
  {7c103cc8-592a-45c6-942e-2eb223a73573}, !- Handle
  {7fa95077-8fc4-4a6e-9732-5029903d63c3}, !- Source Object
  11,                                     !- Outlet Port
  {055dcbb8-08b3-4e91-897f-05b23d0030c0}, !- Target Object
  2;                                      !- Inlet Port

OS:PortList,
  {9cd0bd41-30c0-4a5c-ba04-8ce57d6574bd}, !- Handle
  {7fa95077-8fc4-4a6e-9732-5029903d63c3}, !- HVAC Component
  {70d037c0-c8c4-4627-8a3d-3830829618d1}; !- Port 1

OS:PortList,
  {a68a175c-6ba9-4c52-84f0-23700ff82bb7}, !- Handle
  {7fa95077-8fc4-4a6e-9732-5029903d63c3}; !- HVAC Component

OS:PortList,
  {374b5b0b-fa3c-46f8-bf94-3ff9683cecf6}, !- Handle
  {7fa95077-8fc4-4a6e-9732-5029903d63c3}, !- HVAC Component
  {d943ec56-03cc-4fc9-8c12-96c94c452879}; !- Port 1

OS:Sizing:Zone,
  {3654e2d8-a028-49c4-9c43-ed52b670f2c5}, !- Handle
  {7fa95077-8fc4-4a6e-9732-5029903d63c3}, !- Zone or ZoneList Name
  SupplyAirTemperature,                   !- Zone Cooling Design Supply Air Temperature Input Method
  14,                                     !- Zone Cooling Design Supply Air Temperature {C}
  11.11,                                  !- Zone Cooling Design Supply Air Temperature Difference {deltaC}
  SupplyAirTemperature,                   !- Zone Heating Design Supply Air Temperature Input Method
  40,                                     !- Zone Heating Design Supply Air Temperature {C}
  11.11,                                  !- Zone Heating Design Supply Air Temperature Difference {deltaC}
  0.0085,                                 !- Zone Cooling Design Supply Air Humidity Ratio {kg-H2O/kg-air}
  0.008,                                  !- Zone Heating Design Supply Air Humidity Ratio {kg-H2O/kg-air}
  ,                                       !- Zone Heating Sizing Factor
  ,                                       !- Zone Cooling Sizing Factor
  DesignDay,                              !- Cooling Design Air Flow Method
  ,                                       !- Cooling Design Air Flow Rate {m3/s}
  ,                                       !- Cooling Minimum Air Flow per Zone Floor Area {m3/s-m2}
  ,                                       !- Cooling Minimum Air Flow {m3/s}
  ,                                       !- Cooling Minimum Air Flow Fraction
  DesignDay,                              !- Heating Design Air Flow Method
  ,                                       !- Heating Design Air Flow Rate {m3/s}
  ,                                       !- Heating Maximum Air Flow per Zone Floor Area {m3/s-m2}
  ,                                       !- Heating Maximum Air Flow {m3/s}
  ,                                       !- Heating Maximum Air Flow Fraction
  No,                                     !- Account for Dedicated Outdoor Air System
  NeutralSupplyAir,                       !- Dedicated Outdoor Air System Control Strategy
  autosize,                               !- Dedicated Outdoor Air Low Setpoint Temperature for Design {C}
  autosize,                               !- Dedicated Outdoor Air High Setpoint Temperature for Design {C}
  Sensible Load Only No Latent Load,      !- Zone Load Sizing Method
  HumidityRatioDifference,                !- Zone Latent Cooling Design Supply Air Humidity Ratio Input Method
  ,                                       !- Zone Dehumidification Design Supply Air Humidity Ratio {kgWater/kgDryAir}
  0.005,                                  !- Zone Cooling Design Supply Air Humidity Ratio Difference {kgWater/kgDryAir}
  HumidityRatioDifference,                !- Zone Latent Heating Design Supply Air Humidity Ratio Input Method
  ,                                       !- Zone Humidification Design Supply Air Humidity Ratio {kgWater/kgDryAir}
  0.005;                                  !- Zone Humidification Design Supply Air Humidity Ratio Difference {kgWater/kgDryAir}

OS:ZoneHVAC:EquipmentList,
  {ab02115a-0dba-400c-bdc5-6d4a4a7baecf}, !- Handle
  Zone HVAC Equipment List 1,             !- Name
  {7fa95077-8fc4-4a6e-9732-5029903d63c3}, !- Thermal Zone
  ,                                       !- Load Distribution Scheme
  {abe89892-b280-4c29-8081-c6c18d3e149e}, !- Zone Equipment 1
  1,                                      !- Zone Equipment Cooling Sequence 1
  1,                                      !- Zone Equipment Heating or No-Load Sequence 1
  ,                                       !- Zone Equipment Sequential Cooling Fraction Schedule Name 1
  ;                                       !- Zone Equipment Sequential Heating Fraction Schedule Name 1

OS:SubSurface,
  {4279d664-7b74-4ff9-a1be-ab2b1953ed04}, !- Handle
  Story 1 Core Space Exterior Wall Window, !- Name
  FixedWindow,                            !- Sub Surface Type
  ,                                       !- Construction Name
  {2eb8580f-4181-4b62-8d61-061a0a3cac93}, !- Surface Name
  ,                                       !- Outside Boundary Condition Object
  ,                                       !- View Factor to Ground
  ,                                       !- Frame and Divider Name
  ,                                       !- Multiplier
  ,                                       !- Number of Vertices
  0.0254, 0, 2.60081321311226,            !- X,Y,Z Vertex 1 {m}
  0.0254, 0, 1,                           !- X,Y,Z Vertex 2 {m}
  99.9746, 0, 1,                          !- X,Y,Z Vertex 3 {m}
  99.9746, 0, 2.60081321311226;           !- X,Y,Z Vertex 4 {m}

OS:SubSurface,
  {ca7c3a14-3ea2-4bc9-93c5-58a4a4014791}, !- Handle
  Story 1 Core Space Exterior Wall 1 Window, !- Name
  FixedWindow,                            !- Sub Surface Type
  ,                                       !- Construction Name
  {06e19d47-373b-4c34-803c-71d4d22abb5b}, !- Surface Name
  ,                                       !- Outside Boundary Condition Object
  ,                                       !- View Factor to Ground
  ,                                       !- Frame and Divider Name
  ,                                       !- Multiplier
  ,                                       !- Number of Vertices
  100, 0.0254, 2.60162725328934,          !- X,Y,Z Vertex 1 {m}
  100, 0.0254, 1,                         !- X,Y,Z Vertex 2 {m}
  100, 49.9746, 1,                        !- X,Y,Z Vertex 3 {m}
  100, 49.9746, 2.60162725328934;         !- X,Y,Z Vertex 4 {m}

OS:SubSurface,
  {228c8580-981b-401b-976d-7b2670f9800a}, !- Handle
  Story 1 Core Space Exterior Wall 2 Window, !- Name
  FixedWindow,                            !- Sub Surface Type
  ,                                       !- Construction Name
  {6c4875e3-7d01-4ee8-888a-e1b1f345609e}, !- Surface Name
  ,                                       !- Outside Boundary Condition Object
  ,                                       !- View Factor to Ground
  ,                                       !- Frame and Divider Name
  ,                                       !- Multiplier
  ,                                       !- Number of Vertices
  99.9746, 50, 2.60081321311226,          !- X,Y,Z Vertex 1 {m}
  99.9746, 50, 1,                         !- X,Y,Z Vertex 2 {m}
  0.0253999999999905, 50, 1,              !- X,Y,Z Vertex 3 {m}
  0.0253999999999905, 50, 2.60081321311226; !- X,Y,Z Vertex 4 {m}

OS:SubSurface,
  {a1b6777d-d49f-4666-b9e0-3e49364f1613}, !- Handle
  Story 1 Core Space Exterior Wall 3 Window, !- Name
  FixedWindow,                            !- Sub Surface Type
  ,                                       !- Construction Name
  {bcc9e38e-24df-46ff-b3d3-559c5538b62e}, !- Surface Name
  ,                                       !- Outside Boundary Condition Object
  ,                                       !- View Factor to Ground
  ,                                       !- Frame and Divider Name
  ,                                       !- Multiplier
  ,                                       !- Number of Vertices
  0, 49.9746, 2.60162725328934,           !- X,Y,Z Vertex 1 {m}
  0, 49.9746, 1,                          !- X,Y,Z Vertex 2 {m}
  0, 0.0254000000000048, 1,               !- X,Y,Z Vertex 3 {m}
  0, 0.0254000000000048, 2.60162725328934; !- X,Y,Z Vertex 4 {m}

OS:Schedule:Ruleset,
  {0c7a2f22-4164-49bf-b34d-86906394f154}, !- Handle
  Cooling Sch,                            !- Name
  {cb16b442-b208-408c-bbc6-68570c715b7d}, !- Schedule Type Limits Name
  {b9f91c22-e0d4-4f65-899a-698b85f6cfd3}; !- Default Day Schedule Name

OS:Schedule:Day,
  {b9f91c22-e0d4-4f65-899a-698b85f6cfd3}, !- Handle
  Cooling Sch Default,                    !- Name
  {cb16b442-b208-408c-bbc6-68570c715b7d}, !- Schedule Type Limits Name
  ,                                       !- Interpolate to Timestep
  24,                                     !- Hour 1
  0,                                      !- Minute 1
  26;                                     !- Value Until Time 1

OS:Schedule:Ruleset,
  {6312eec5-5e5e-4ef7-a367-3d515d84c022}, !- Handle
  Heating Sch,                            !- Name
  {cb16b442-b208-408c-bbc6-68570c715b7d}, !- Schedule Type Limits Name
  {555fbd7e-a503-4f12-80ad-6a47e3f6f4dc}; !- Default Day Schedule Name

OS:Schedule:Day,
  {555fbd7e-a503-4f12-80ad-6a47e3f6f4dc}, !- Handle
  Heating Sch Default,                    !- Name
  {cb16b442-b208-408c-bbc6-68570c715b7d}, !- Schedule Type Limits Name
  ,                                       !- Interpolate to Timestep
  24,                                     !- Hour 1
  0,                                      !- Minute 1
  19;                                     !- Value Until Time 1

OS:ThermostatSetpoint:DualSetpoint,
  {ea35426b-4a08-4a2f-9c18-d7b3689131ee}, !- Handle
  Thermostat Setpoint Dual Setpoint 1,    !- Name
  {6312eec5-5e5e-4ef7-a367-3d515d84c022}, !- Heating Setpoint Temperature Schedule Name
  {0c7a2f22-4164-49bf-b34d-86906394f154}; !- Cooling Setpoint Temperature Schedule Name

OS:ScheduleTypeLimits,
  {cb16b442-b208-408c-bbc6-68570c715b7d}, !- Handle
  Temperature,                            !- Name
  ,                                       !- Lower Limit Value
  ,                                       !- Upper Limit Value
  Continuous,                             !- Numeric Type
  Temperature;                            !- Unit Type

OS:DefaultConstructionSet,
  {939f7262-3bbb-4bdc-988c-64d856b11cc1}, !- Handle
  ASHRAE_189.1-2009_ClimateZone 4-5 (mdoff)_ConstSet, !- Name
  {9dcb9b1c-b6f6-42a9-bba3-2d0a10d3c104}, !- Default Exterior Surface Constructions Name
  {678435cf-11a7-49ea-bd18-b8cbc91ec08d}, !- Default Interior Surface Constructions Name
  {f27fb0df-8647-4172-9990-34a43736c194}, !- Default Ground Contact Surface Constructions Name
  {3f5ddbb4-c266-4267-beef-ca039df4167e}, !- Default Exterior SubSurface Constructions Name
  {dc99b30f-d5e0-4e53-ae62-1af25e1491ab}, !- Default Interior SubSurface Constructions Name
  {0de332a9-6945-49b3-a130-24ded4060cc4}, !- Interior Partition Construction Name
  ,                                       !- Space Shading Construction Name
  ,                                       !- Building Shading Construction Name
  ,                                       !- Site Shading Construction Name
  ;                                       !- Adiabatic Surface Construction Name

OS:DefaultSurfaceConstructions,
  {9dcb9b1c-b6f6-42a9-bba3-2d0a10d3c104}, !- Handle
  ASHRAE_189.1-2009_ClimateZone 4-5 (mdoff)_Exterior_DefSurfCons, !- Name
  {9e959127-60db-49c8-907a-a315f43716e5}, !- Floor Construction Name
  {58eb8cce-394f-489a-9064-7cd4d4e8519e}, !- Wall Construction Name
  {d9ba7739-3b4e-4efc-bcce-a1160d18b0aa}; !- Roof Ceiling Construction Name

OS:DefaultSurfaceConstructions,
  {678435cf-11a7-49ea-bd18-b8cbc91ec08d}, !- Handle
  000_Interior_DefSurfCons,               !- Name
  {8163c1ae-f6bd-47ae-a465-22db8e3f553f}, !- Floor Construction Name
  {9e1efbfd-900d-414e-b2e6-f219c0737afe}, !- Wall Construction Name
  {b8376f72-8b8e-4a12-8327-ecad7911c0e3}; !- Roof Ceiling Construction Name

OS:DefaultSurfaceConstructions,
  {f27fb0df-8647-4172-9990-34a43736c194}, !- Handle
  000_Ground_DefSurfCons,                 !- Name
  {9e959127-60db-49c8-907a-a315f43716e5}, !- Floor Construction Name
  {9e959127-60db-49c8-907a-a315f43716e5}, !- Wall Construction Name
  {9e959127-60db-49c8-907a-a315f43716e5}; !- Roof Ceiling Construction Name

OS:DefaultSubSurfaceConstructions,
  {3f5ddbb4-c266-4267-beef-ca039df4167e}, !- Handle
  ASHRAE_189.1-2009_ClimateZone 4-5 (mdoff)_Exterior_DefSubCons, !- Name
  {d57b1e41-d594-480e-9f1a-5a28f5e8f674}, !- Fixed Window Construction Name
  {d57b1e41-d594-480e-9f1a-5a28f5e8f674}, !- Operable Window Construction Name
  {5379641d-c34c-435f-847d-942368ccd4b8}, !- Door Construction Name
  {3d7e969a-6546-4fe7-90b9-02672ea396d3}, !- Glass Door Construction Name
  ,                                       !- Overhead Door Construction Name
  {3d7e969a-6546-4fe7-90b9-02672ea396d3}, !- Skylight Construction Name
  {b16bc5e5-a4bb-4225-82dd-ddbbe31739fa}, !- Tubular Daylight Dome Construction Name
  {b16bc5e5-a4bb-4225-82dd-ddbbe31739fa}; !- Tubular Daylight Diffuser Construction Name

OS:DefaultSubSurfaceConstructions,
  {dc99b30f-d5e0-4e53-ae62-1af25e1491ab}, !- Handle
  000_Interior_DefSubCons,                !- Name
  {b16bc5e5-a4bb-4225-82dd-ddbbe31739fa}, !- Fixed Window Construction Name
  {b16bc5e5-a4bb-4225-82dd-ddbbe31739fa}, !- Operable Window Construction Name
  {108e0b7d-dd80-4a66-9a49-665f3e7088ca}, !- Door Construction Name
  {3d7e969a-6546-4fe7-90b9-02672ea396d3}, !- Glass Door Construction Name
  ,                                       !- Overhead Door Construction Name
  {3d7e969a-6546-4fe7-90b9-02672ea396d3}, !- Skylight Construction Name
  {b16bc5e5-a4bb-4225-82dd-ddbbe31739fa}, !- Tubular Daylight Dome Construction Name
  {b16bc5e5-a4bb-4225-82dd-ddbbe31739fa}; !- Tubular Daylight Diffuser Construction Name

OS:Construction,
  {0de332a9-6945-49b3-a130-24ded4060cc4}, !- Handle
  000_Interior Partition,                 !- Name
  ,                                       !- Surface Rendering Name
  {45cd8373-a83b-4323-88d8-b84901da0593}; !- Layer 1

OS:Construction,
  {9e959127-60db-49c8-907a-a315f43716e5}, !- Handle
  000_ExtSlabCarpet_4in_ClimateZone 1-8,  !- Name
  ,                                       !- Surface Rendering Name
  {7fdf7317-6d83-4863-823c-591ecbc78e94}, !- Layer 1
  {690649a2-b7e9-49e3-bb26-eed89ee1c0ee}; !- Layer 2

OS:Construction,
  {58eb8cce-394f-489a-9064-7cd4d4e8519e}, !- Handle
  ASHRAE_189.1-2009_ExtWall_SteelFrame_ClimateZone 4-8, !- Name
  ,                                       !- Surface Rendering Name
  {2fc73b8e-46ff-4c8d-9057-1d4d965fe375}, !- Layer 1
  {c7c8c551-aee2-4707-8c78-4d974e48f7f6}, !- Layer 2
  {30a13512-d5d8-4dfa-a26d-2f59ade8cd7f}; !- Layer 3

OS:Construction,
  {d9ba7739-3b4e-4efc-bcce-a1160d18b0aa}, !- Handle
  ASHRAE_189.1-2009_ExtRoof_IEAD_ClimateZone 2-5, !- Name
  ,                                       !- Surface Rendering Name
  {f9b9cfe0-8551-4edb-a1d8-b414ecd36f04}, !- Layer 1
  {62ecce78-542c-42cc-8ef7-bdf40368e8a8}, !- Layer 2
  {32f7d1cf-1809-40b2-bdf6-8120a206e6af}; !- Layer 3

OS:Construction,
  {8163c1ae-f6bd-47ae-a465-22db8e3f553f}, !- Handle
  000_Interior Floor,                     !- Name
  ,                                       !- Surface Rendering Name
  {e5023859-13a3-4c15-ad6d-eacc9baa066b}, !- Layer 1
  {b93a784e-369d-46e0-9a1d-1ebcb08ff544}, !- Layer 2
  {33ee4b7d-dcfd-4cb4-af28-8a65f407cffa}; !- Layer 3

OS:Construction,
  {9e1efbfd-900d-414e-b2e6-f219c0737afe}, !- Handle
  000_Interior Wall,                      !- Name
  ,                                       !- Surface Rendering Name
  {abf24142-1470-4a90-9dae-3eebf75004bf}, !- Layer 1
  {72cb6db2-c39b-4afe-a79c-def094893737}, !- Layer 2
  {abf24142-1470-4a90-9dae-3eebf75004bf}; !- Layer 3

OS:Construction,
  {b8376f72-8b8e-4a12-8327-ecad7911c0e3}, !- Handle
  000_Interior Ceiling,                   !- Name
  ,                                       !- Surface Rendering Name
  {33ee4b7d-dcfd-4cb4-af28-8a65f407cffa}, !- Layer 1
  {b93a784e-369d-46e0-9a1d-1ebcb08ff544}, !- Layer 2
  {e5023859-13a3-4c15-ad6d-eacc9baa066b}; !- Layer 3

OS:Construction,
  {d57b1e41-d594-480e-9f1a-5a28f5e8f674}, !- Handle
  ASHRAE_189.1-2009_ExtWindow_ClimateZone 4-5, !- Name
  ,                                       !- Surface Rendering Name
  {382eea9d-b441-4159-ac6e-6a8f1e9e45a1}; !- Layer 1

OS:Construction,
  {5379641d-c34c-435f-847d-942368ccd4b8}, !- Handle
  000_Exterior Door,                      !- Name
  ,                                       !- Surface Rendering Name
  {cbe68704-544d-40cd-bc53-2913e94364b2}, !- Layer 1
  {ce3f4ab5-709e-4cb0-b3b7-d73464639065}; !- Layer 2

OS:Construction,
  {3d7e969a-6546-4fe7-90b9-02672ea396d3}, !- Handle
  000_Exterior Window,                    !- Name
  ,                                       !- Surface Rendering Name
  {7c6f7fd2-5f86-4c50-a691-2a0d74571c75}, !- Layer 1
  {c1d42d40-29ff-4a59-9715-173f8cc4c6f8}, !- Layer 2
  {7c6f7fd2-5f86-4c50-a691-2a0d74571c75}; !- Layer 3

OS:Construction,
  {b16bc5e5-a4bb-4225-82dd-ddbbe31739fa}, !- Handle
  000_Interior Window,                    !- Name
  ,                                       !- Surface Rendering Name
  {7c6f7fd2-5f86-4c50-a691-2a0d74571c75}; !- Layer 1

OS:Construction,
  {108e0b7d-dd80-4a66-9a49-665f3e7088ca}, !- Handle
  000_Interior Door,                      !- Name
  ,                                       !- Surface Rendering Name
  {45cd8373-a83b-4323-88d8-b84901da0593}; !- Layer 1

OS:Material,
  {45cd8373-a83b-4323-88d8-b84901da0593}, !- Handle
  000_G05 25mm wood,                      !- Name
  MediumSmooth,                           !- Roughness
  0.025399999999999999,                   !- Thickness {m}
  0.14999999999999999,                    !- Conductivity {W/m-K}
  608,                                    !- Density {kg/m3}
  1630;                                   !- Specific Heat {J/kg-K}

OS:Material,
  {7fdf7317-6d83-4863-823c-591ecbc78e94}, !- Handle
  MAT-CC05 4 HW CONCRETE,                 !- Name
  Rough,                                  !- Roughness
  0.1016,                                 !- Thickness {m}
  1.3109999999999999,                     !- Conductivity {W/m-K}
  2240,                                   !- Density {kg/m3}
  836.8,                                  !- Specific Heat {J/kg-K}
  0.90000000000000002,                    !- Thermal Absorptance
  0.69999999999999996,                    !- Solar Absorptance
  0.69999999999999996;                    !- Visible Absorptance

OS:Material:NoMass,
  {690649a2-b7e9-49e3-bb26-eed89ee1c0ee}, !- Handle
  CP02 CARPET PAD,                        !- Name
  VeryRough,                              !- Roughness
  0.2165,                                 !- Thermal Resistance {m2-K/W}
  0.90000000000000002,                    !- Thermal Absorptance
  0.69999999999999996,                    !- Solar Absorptance
  0.80000000000000004;                    !- Visible Absorptance

OS:Material:NoMass,
  {2fc73b8e-46ff-4c8d-9057-1d4d965fe375}, !- Handle
  MAT-SHEATH,                             !- Name
  Rough,                                  !- Roughness
  0.36259999999999998,                    !- Thermal Resistance {m2-K/W}
  0.90000000000000002,                    !- Thermal Absorptance
  0.69999999999999996,                    !- Solar Absorptance
  0.69999999999999996;                    !- Visible Absorptance

OS:Material,
  {c7c8c551-aee2-4707-8c78-4d974e48f7f6}, !- Handle
  Wall Insulation [39],                   !- Name
  MediumRough,                            !- Roughness
  0.11840000000000001,                    !- Thickness {m}
  0.044999999999999998,                   !- Conductivity {W/m-K}
  265,                                    !- Density {kg/m3}
  836.8,                                  !- Specific Heat {J/kg-K}
  0.90000000000000002,                    !- Thermal Absorptance
  0.69999999999999996,                    !- Solar Absorptance
  0.69999999999999996;                    !- Visible Absorptance

OS:Material,
  {30a13512-d5d8-4dfa-a26d-2f59ade8cd7f}, !- Handle
  1/2IN Gypsum,                           !- Name
  Smooth,                                 !- Roughness
  0.012699999999999999,                   !- Thickness {m}
  0.16,                                   !- Conductivity {W/m-K}
  784.89999999999998,                     !- Density {kg/m3}
  830,                                    !- Specific Heat {J/kg-K}
  0.90000000000000002,                    !- Thermal Absorptance
  0.92000000000000004,                    !- Solar Absorptance
  0.92000000000000004;                    !- Visible Absorptance

OS:Material,
  {f9b9cfe0-8551-4edb-a1d8-b414ecd36f04}, !- Handle
  Roof Membrane,                          !- Name
  VeryRough,                              !- Roughness
  0.0094999999999999998,                  !- Thickness {m}
  0.16,                                   !- Conductivity {W/m-K}
  1121.29,                                !- Density {kg/m3}
  1460,                                   !- Specific Heat {J/kg-K}
  0.90000000000000002,                    !- Thermal Absorptance
  0.69999999999999996,                    !- Solar Absorptance
  0.69999999999999996;                    !- Visible Absorptance

OS:Material,