
OS:Version,
  {bd5fb3b9-0a6f-43b4-a84c-b7fe5a67a003}, !- Handle
  3.2.0;                                  !- Version Identifier

OS:BuildingStory,
  {624671bb-4889-465d-aed7-43b8eb335483}, !- Handle
  Story 1,                                !- Name
  0,                                      !- Nominal Z Coordinate {m}
  4,                                      !- Nominal Floor to Floor Height {m}
  ,                                       !- Default Construction Set Name
  ,                                       !- Default Schedule Set Name
  ;                                       !- Group Rendering Name

OS:Space,
  {0e26055a-120a-48ec-b82b-001a7ce78a4c}, !- Handle
  Story 1 Core Space,                     !- Name
  ,                                       !- Space Type Name
  ,                                       !- Default Construction Set Name
  ,                                       !- Default Schedule Set Name
  -0,                                     !- Direction of Relative North {deg}
  0,                                      !- X Origin {m}
  0,                                      !- Y Origin {m}
  0,                                      !- Z Origin {m}
  {624671bb-4889-465d-aed7-43b8eb335483}, !- Building Story Name
  {6eac1530-f6de-48d4-879f-9e7fb8644595}; !- Thermal Zone Name

OS:Surface,
  {277d7a00-f91c-4e03-89c4-99686d66ec80}, !- Handle
  Surface 1,                              !- Name
  Floor,                                  !- Surface Type
  ,                                       !- Construction Name
  {0e26055a-120a-48ec-b82b-001a7ce78a4c}, !- Space Name
  Ground,                                 !- Outside Boundary Condition
  ,                                       !- Outside Boundary Condition Object
  NoSun,                                  !- Sun Exposure
  NoWind,                                 !- Wind Exposure
  ,                                       !- View Factor to Ground
  ,                                       !- Number of Vertices
  0, 0, 0,                                !- X,Y,Z Vertex 1 {m}
  0, 50, 0,                               !- X,Y,Z Vertex 2 {m}
  100, 50, 0,                             !- X,Y,Z Vertex 3 {m}
  100, 0, 0;                              !- X,Y,Z Vertex 4 {m}

OS:Surface,
  {ee51e4e2-b0ae-4650-b936-de79419f726c}, !- Handle
  Surface 2,                              !- Name
  Wall,                                   !- Surface Type
  ,                                       !- Construction Name
  {0e26055a-120a-48ec-b82b-001a7ce78a4c}, !- Space Name
  Outdoors,                               !- Outside Boundary Condition
  ,                                       !- Outside Boundary Condition Object
  SunExposed,                             !- Sun Exposure
  WindExposed,                            !- Wind Exposure
  ,                                       !- View Factor to Ground
  ,                                       !- Number of Vertices
  0, 50, 4,                               !- X,Y,Z Vertex 1 {m}
  0, 50, 0,                               !- X,Y,Z Vertex 2 {m}
  0, 0, 0,                                !- X,Y,Z Vertex 3 {m}
  0, 0, 4;                                !- X,Y,Z Vertex 4 {m}

OS:Surface,
  {001333ca-e760-4558-9a1c-3fce8f035322}, !- Handle
  Surface 3,                              !- Name
  Wall,                                   !- Surface Type
  ,                                       !- Construction Name
  {0e26055a-120a-48ec-b82b-001a7ce78a4c}, !- Space Name
  Outdoors,                               !- Outside Boundary Condition
  ,                                       !- Outside Boundary Condition Object
  SunExposed,                             !- Sun Exposure
  WindExposed,                            !- Wind Exposure
  ,                                       !- View Factor to Ground
  ,                                       !- Number of Vertices
  100, 50, 4,                             !- X,Y,Z Vertex 1 {m}
  100, 50, 0,                             !- X,Y,Z Vertex 2 {m}
  0, 50, 0,                               !- X,Y,Z Vertex 3 {m}
  0, 50, 4;                               !- X,Y,Z Vertex 4 {m}

OS:Surface,
  {9a107890-13a8-4a7a-940d-46fc8c318116}, !- Handle
  Surface 4,                              !- Name
  Wall,                                   !- Surface Type
  ,                                       !- Construction Name
  {0e26055a-120a-48ec-b82b-001a7ce78a4c}, !- Space Name
  Outdoors,                               !- Outside Boundary Condition
  ,                                       !- Outside Boundary Condition Object
  SunExposed,                             !- Sun Exposure
  WindExposed,                            !- Wind Exposure
  ,                                       !- View Factor to Ground
  ,                                       !- Number of Vertices
  100, 0, 4,                              !- X,Y,Z Vertex 1 {m}
  100, 0, 0,                              !- X,Y,Z Vertex 2 {m}
  100, 50, 0,                             !- X,Y,Z Vertex 3 {m}
  100, 50, 4;                             !- X,Y,Z Vertex 4 {m}

OS:Surface,
  {0c1d8020-31d7-44f1-8dc9-d1ad7653fda7}, !- Handle
  Surface 5,                              !- Name
  Wall,                                   !- Surface Type
  ,                                       !- Construction Name
  {0e26055a-120a-48ec-b82b-001a7ce78a4c}, !- Space Name
  Outdoors,                               !- Outside Boundary Condition
  ,                                       !- Outside Boundary Condition Object
  SunExposed,                             !- Sun Exposure
  WindExposed,                            !- Wind Exposure
  ,                                       !- View Factor to Ground
  ,                                       !- Number of Vertices
  0, 0, 4,                                !- X,Y,Z Vertex 1 {m}
  0, 0, 0,                                !- X,Y,Z Vertex 2 {m}
  100, 0, 0,                              !- X,Y,Z Vertex 3 {m}
  100, 0, 4;                              !- X,Y,Z Vertex 4 {m}

OS:Surface,
  {8cb9b567-af96-4806-a1c1-1753959da968}, !- Handle
  Surface 6,                              !- Name
  RoofCeiling,                            !- Surface Type
  ,                                       !- Construction Name
  {0e26055a-120a-48ec-b82b-001a7ce78a4c}, !- Space Name
  Outdoors,                               !- Outside Boundary Condition
  ,                                       !- Outside Boundary Condition Object
  SunExposed,                             !- Sun Exposure
  WindExposed,                            !- Wind Exposure
  ,                                       !- View Factor to Ground
  ,                                       !- Number of Vertices
  100, 0, 4,                              !- X,Y,Z Vertex 1 {m}
  100, 50, 4,                             !- X,Y,Z Vertex 2 {m}
  0, 50, 4,                               !- X,Y,Z Vertex 3 {m}
  0, 0, 4;                                !- X,Y,Z Vertex 4 {m}

OS:ThermalZone,
  {6eac1530-f6de-48d4-879f-9e7fb8644595}, !- Handle
  Story 1 Core Thermal Zone,              !- Name
  ,                                       !- Multiplier
  ,                                       !- Ceiling Height {m}
  ,                                       !- Volume {m3}
  ,                                       !- Floor Area {m2}
  ,                                       !- Zone Inside Convection Algorithm
  ,                                       !- Zone Outside Convection Algorithm
  ,                                       !- Zone Conditioning Equipment List Name
  {1f7cd062-d982-473a-91b7-56a9d0a977b7}, !- Zone Air Inlet Port List
  {51a49c5e-2900-4b0b-b7ef-975c56312c68}, !- Zone Air Exhaust Port List
  {62ff5a8b-62c4-44fe-8e61-0bd898f93afe}, !- Zone Air Node Name
  {24008114-5d25-4fd5-93ac-a724a2c663c1}, !- Zone Return Air Port List
  ,                                       !- Primary Daylighting Control Name
  ,                                       !- Fraction of Zone Controlled by Primary Daylighting Control
  ,                                       !- Secondary Daylighting Control Name
  ,                                       !- Fraction of Zone Controlled by Secondary Daylighting Control
  ,                                       !- Illuminance Map Name
  ,                                       !- Group Rendering Name
  {ea939aac-951a-4ccb-9d51-f7440440f29a}, !- Thermostat Name
  No;                                     !- Use Ideal Air Loads

OS:Node,
  {e970f478-e562-45ec-81a6-d49b9d2db19a}, !- Handle
  Node 1,                                 !- Name
  {62ff5a8b-62c4-44fe-8e61-0bd898f93afe}, !- Inlet Port
  ;                                       !- Outlet Port

OS:Connection,
  {62ff5a8b-62c4-44fe-8e61-0bd898f93afe}, !- Handle
  {6eac1530-f6de-48d4-879f-9e7fb8644595}, !- Source Object
  11,                                     !- Outlet Port
  {e970f478-e562-45ec-81a6-d49b9d2db19a}, !- Target Object
  2;                                      !- Inlet Port

OS:PortList,
  {1f7cd062-d982-473a-91b7-56a9d0a977b7}, !- Handle
  {6eac1530-f6de-48d4-879f-9e7fb8644595}, !- HVAC Component
  {6b9155d0-0476-4138-976b-b824997ecda9}, !- Port 1
  {cd5cb64f-a5fd-44fe-bd33-6ecf512d379b}; !- Port 2

OS:PortList,
  {51a49c5e-2900-4b0b-b7ef-975c56312c68}, !- Handle
  {6eac1530-f6de-48d4-879f-9e7fb8644595}, !- HVAC Component
  {04c94a67-59dd-41b7-a625-0334810c873d}; !- Port 1

OS:PortList,
  {24008114-5d25-4fd5-93ac-a724a2c663c1}, !- Handle
  {6eac1530-f6de-48d4-879f-9e7fb8644595}, !- HVAC Component
  {93ba2f95-b707-4d7b-964e-171cda421e6d}; !- Port 1

OS:Sizing:Zone,
  {5ec858ec-4d72-467a-a786-fbf43727b15a}, !- Handle
  {6eac1530-f6de-48d4-879f-9e7fb8644595}, !- Zone or ZoneList Name
  SupplyAirTemperature,                   !- Zone Cooling Design Supply Air Temperature Input Method
  14,                                     !- Zone Cooling Design Supply Air Temperature {C}
  11.11,                                  !- Zone Cooling Design Supply Air Temperature Difference {deltaC}
  SupplyAirTemperature,                   !- Zone Heating Design Supply Air Temperature Input Method
  40,                                     !- Zone Heating Design Supply Air Temperature {C}
  11.11,                                  !- Zone Heating Design Supply Air Temperature Difference {deltaC}
  0.0085,                                 !- Zone Cooling Design Supply Air Humidity Ratio {kg-H2O/kg-air}
  0.008,                                  !- Zone Heating Design Supply Air Humidity Ratio {kg-H2O/kg-air}
  ,                                       !- Zone Heating Sizing Factor
  ,                                       !- Zone Cooling Sizing Factor
  DesignDay,                              !- Cooling Design Air Flow Method
  ,                                       !- Cooling Design Air Flow Rate {m3/s}
  ,                                       !- Cooling Minimum Air Flow per Zone Floor Area {m3/s-m2}
  ,                                       !- Cooling Minimum Air Flow {m3/s}
  ,                                       !- Cooling Minimum Air Flow Fraction
  DesignDay,                              !- Heating Design Air Flow Method
  ,                                       !- Heating Design Air Flow Rate {m3/s}
  ,                                       !- Heating Maximum Air Flow per Zone Floor Area {m3/s-m2}
  ,                                       !- Heating Maximum Air Flow {m3/s}
  ,                                       !- Heating Maximum Air Flow Fraction
  No,                                     !- Account for Dedicated Outdoor Air System
  NeutralSupplyAir,                       !- Dedicated Outdoor Air System Control Strategy
  autosize,                               !- Dedicated Outdoor Air Low Setpoint Temperature for Design {C}
  autosize;                               !- Dedicated Outdoor Air High Setpoint Temperature for Design {C}

OS:ZoneHVAC:EquipmentList,
  {487d8d0c-7ccc-461b-bd79-c2fee1c2f1f1}, !- Handle
  Zone HVAC Equipment List 1,             !- Name
  {6eac1530-f6de-48d4-879f-9e7fb8644595}, !- Thermal Zone
  ,                                       !- Load Distribution Scheme
  {196db9aa-f458-44b4-8d53-a220def07dd4}, !- Zone Equipment 1
  2,                                      !- Zone Equipment Cooling Sequence 1
  2,                                      !- Zone Equipment Heating or No-Load Sequence 1
  ,                                       !- Zone Equipment Sequential Cooling Fraction Schedule Name 1
  ,                                       !- Zone Equipment Sequential Heating Fraction Schedule Name 1
  {4d6e16ad-45fd-42a7-8a7b-0e66980b191d}, !- Zone Equipment 2
  1,                                      !- Zone Equipment Cooling Sequence 2
  1,                                      !- Zone Equipment Heating or No-Load Sequence 2
  ,                                       !- Zone Equipment Sequential Cooling Fraction Schedule Name 2
  ;                                       !- Zone Equipment Sequential Heating Fraction Schedule Name 2

OS:SubSurface,
  {8360d863-5a30-4fc1-bfc1-27a5049e6d32}, !- Handle
  Sub Surface 1,                          !- Name
  FixedWindow,                            !- Sub Surface Type
  ,                                       !- Construction Name
  {0c1d8020-31d7-44f1-8dc9-d1ad7653fda7}, !- Surface Name
  ,                                       !- Outside Boundary Condition Object
  ,                                       !- View Factor to Ground
  ,                                       !- Frame and Divider Name
  ,                                       !- Multiplier
  ,                                       !- Number of Vertices
  0.0254, 0, 2.60081321311226,            !- X,Y,Z Vertex 1 {m}
  0.0254, 0, 1,                           !- X,Y,Z Vertex 2 {m}
  99.9746, 0, 1,                          !- X,Y,Z Vertex 3 {m}
  99.9746, 0, 2.60081321311226;           !- X,Y,Z Vertex 4 {m}

OS:SubSurface,
  {46a1d42a-1416-49c7-b4ef-09b5de12e781}, !- Handle
  Sub Surface 2,                          !- Name
  FixedWindow,                            !- Sub Surface Type
  ,                                       !- Construction Name
  {9a107890-13a8-4a7a-940d-46fc8c318116}, !- Surface Name
  ,                                       !- Outside Boundary Condition Object
  ,                                       !- View Factor to Ground
  ,                                       !- Frame and Divider Name
  ,                                       !- Multiplier
  ,                                       !- Number of Vertices
  100, 0.0254, 2.60162725328934,          !- X,Y,Z Vertex 1 {m}
  100, 0.0254, 1,                         !- X,Y,Z Vertex 2 {m}
  100, 49.9746, 1,                        !- X,Y,Z Vertex 3 {m}
  100, 49.9746, 2.60162725328934;         !- X,Y,Z Vertex 4 {m}

OS:SubSurface,
  {bb4bb82b-3785-47d8-b3b8-37785846196d}, !- Handle
  Sub Surface 3,                          !- Name
  FixedWindow,                            !- Sub Surface Type
  ,                                       !- Construction Name
  {001333ca-e760-4558-9a1c-3fce8f035322}, !- Surface Name
  ,                                       !- Outside Boundary Condition Object
  ,                                       !- View Factor to Ground
  ,                                       !- Frame and Divider Name
  ,                                       !- Multiplier
  ,                                       !- Number of Vertices
  99.9746, 50, 2.60081321311226,          !- X,Y,Z Vertex 1 {m}
  99.9746, 50, 1,                         !- X,Y,Z Vertex 2 {m}
  0.0253999999999905, 50, 1,              !- X,Y,Z Vertex 3 {m}
  0.0253999999999905, 50, 2.60081321311226; !- X,Y,Z Vertex 4 {m}

OS:SubSurface,
  {84c251ff-9544-44f7-93ef-7f951c54f501}, !- Handle
  Sub Surface 4,                          !- Name
  FixedWindow,                            !- Sub Surface Type
  ,                                       !- Construction Name
  {ee51e4e2-b0ae-4650-b936-de79419f726c}, !- Surface Name
  ,                                       !- Outside Boundary Condition Object
  ,                                       !- View Factor to Ground
  ,                                       !- Frame and Divider Name
  ,                                       !- Multiplier
  ,                                       !- Number of Vertices
  0, 49.9746, 2.60162725328934,           !- X,Y,Z Vertex 1 {m}
  0, 49.9746, 1,                          !- X,Y,Z Vertex 2 {m}
  0, 0.0254000000000048, 1,               !- X,Y,Z Vertex 3 {m}
  0, 0.0254000000000048, 2.60162725328934; !- X,Y,Z Vertex 4 {m}

OS:DefaultConstructionSet,
  {3c78599b-e21c-43c3-be13-0537adc7a09a}, !- Handle
  ASHRAE_189.1-2009_ClimateZone 4-5 (mdoff)_ConstSet, !- Name
  {7420faec-aff0-43d7-bb37-a011b41c5c51}, !- Default Exterior Surface Constructions Name
  {976720d1-5f9f-4334-8156-36dc5f032935}, !- Default Interior Surface Constructions Name
  {fea044dd-bee2-44ca-94eb-727ce3b814bd}, !- Default Ground Contact Surface Constructions Name
  {37f4fe50-bc6e-4165-8882-c33af6e199b4}, !- Default Exterior SubSurface Constructions Name
  {4a13c592-6bd4-407a-ad4a-a6c8099e4244}, !- Default Interior SubSurface Constructions Name
  {2e8ab3a9-a6da-47dc-bf47-adf3d8c2f95f}, !- Interior Partition Construction Name
  ,                                       !- Space Shading Construction Name
  ,                                       !- Building Shading Construction Name
  ,                                       !- Site Shading Construction Name
  ;                                       !- Adiabatic Surface Construction Name

OS:DefaultSurfaceConstructions,
  {7420faec-aff0-43d7-bb37-a011b41c5c51}, !- Handle
  ASHRAE_189.1-2009_ClimateZone 4-5 (mdoff)_Exterior_DefSurfCons, !- Name
  {9b7b11d8-88ca-41ca-91dd-cfae6da6d5cc}, !- Floor Construction Name
  {83ac090d-2855-45b3-9f8f-564d0f74dffe}, !- Wall Construction Name
  {c0004bac-1723-458e-98a9-3c1158ca4a30}; !- Roof Ceiling Construction Name

OS:DefaultSurfaceConstructions,
  {976720d1-5f9f-4334-8156-36dc5f032935}, !- Handle
  000_Interior_DefSurfCons,               !- Name
  {5bc5fc94-cc98-45d9-ba3f-9044c2f81b60}, !- Floor Construction Name
  {ef736db5-40a8-44d3-99c8-5b6c029db1e4}, !- Wall Construction Name
  {6bf16f03-ba95-4570-a517-a9d3e5e35c12}; !- Roof Ceiling Construction Name

OS:DefaultSurfaceConstructions,
  {fea044dd-bee2-44ca-94eb-727ce3b814bd}, !- Handle
  000_Ground_DefSurfCons,                 !- Name
  {9b7b11d8-88ca-41ca-91dd-cfae6da6d5cc}, !- Floor Construction Name
  {9b7b11d8-88ca-41ca-91dd-cfae6da6d5cc}, !- Wall Construction Name
  {9b7b11d8-88ca-41ca-91dd-cfae6da6d5cc}; !- Roof Ceiling Construction Name

OS:DefaultSubSurfaceConstructions,
  {37f4fe50-bc6e-4165-8882-c33af6e199b4}, !- Handle
  ASHRAE_189.1-2009_ClimateZone 4-5 (mdoff)_Exterior_DefSubCons, !- Name
  {81773ead-d382-4204-a457-efae4f1424c7}, !- Fixed Window Construction Name
  {81773ead-d382-4204-a457-efae4f1424c7}, !- Operable Window Construction Name
  {cea603de-55a7-4ae5-bd05-3a6c4e3957a1}, !- Door Construction Name
  {93955522-3741-4e0c-a721-d88937bf4432}, !- Glass Door Construction Name
  ,                                       !- Overhead Door Construction Name
  {93955522-3741-4e0c-a721-d88937bf4432}, !- Skylight Construction Name
  {cf177343-70d0-4b19-8240-31717677d6a5}, !- Tubular Daylight Dome Construction Name
  {cf177343-70d0-4b19-8240-31717677d6a5}; !- Tubular Daylight Diffuser Construction Name

OS:DefaultSubSurfaceConstructions,
  {4a13c592-6bd4-407a-ad4a-a6c8099e4244}, !- Handle
  000_Interior_DefSubCons,                !- Name
  {cf177343-70d0-4b19-8240-31717677d6a5}, !- Fixed Window Construction Name
  {cf177343-70d0-4b19-8240-31717677d6a5}, !- Operable Window Construction Name
  {17808fd5-fe88-4b22-acad-3fec27c1d7cd}, !- Door Construction Name
  {93955522-3741-4e0c-a721-d88937bf4432}, !- Glass Door Construction Name
  ,                                       !- Overhead Door Construction Name
  {93955522-3741-4e0c-a721-d88937bf4432}, !- Skylight Construction Name
  {cf177343-70d0-4b19-8240-31717677d6a5}, !- Tubular Daylight Dome Construction Name
  {cf177343-70d0-4b19-8240-31717677d6a5}; !- Tubular Daylight Diffuser Construction Name

OS:Construction,
  {2e8ab3a9-a6da-47dc-bf47-adf3d8c2f95f}, !- Handle
  000_Interior Partition,                 !- Name
  ,                                       !- Surface Rendering Name
  {da2d2e39-9aea-4368-abe7-413a255a0d73}; !- Layer 1

OS:Construction,
  {9b7b11d8-88ca-41ca-91dd-cfae6da6d5cc}, !- Handle
  000_ExtSlabCarpet_4in_ClimateZone 1-8,  !- Name
  ,                                       !- Surface Rendering Name
  {1419c99c-a69d-474b-9e9b-f5b2c92caa1b}, !- Layer 1
  {f79b3c75-69c6-4b1a-bc02-10797925851d}; !- Layer 2

OS:Construction,
  {83ac090d-2855-45b3-9f8f-564d0f74dffe}, !- Handle
  ASHRAE_189.1-2009_ExtWall_SteelFrame_ClimateZone 4-8, !- Name
  ,                                       !- Surface Rendering Name
  {70ab1b37-7679-49a7-881c-871adc256839}, !- Layer 1
  {6754ebb6-2a96-48ab-bfb0-9adcea3866ec}, !- Layer 2
  {2dca9119-f003-469f-8725-aeaa431dffd3}; !- Layer 3

OS:Construction,
  {c0004bac-1723-458e-98a9-3c1158ca4a30}, !- Handle
  ASHRAE_189.1-2009_ExtRoof_IEAD_ClimateZone 2-5, !- Name
  ,                                       !- Surface Rendering Name
  {c8d67f42-e714-4d39-9820-a284ace37ecf}, !- Layer 1
  {1758ef5e-92dd-4728-9f02-31e6f2e8cd98}, !- Layer 2
  {ece7f194-8f31-42cb-8319-c42def366f6a}; !- Layer 3

OS:Construction,
  {5bc5fc94-cc98-45d9-ba3f-9044c2f81b60}, !- Handle
  000_Interior Floor,                     !- Name
  ,                                       !- Surface Rendering Name
  {8d0de2a9-44b6-438d-86fa-94ab12e3acf5}, !- Layer 1
  {5d31ee23-23dc-46a7-bd3f-cdc38a2153cc}, !- Layer 2
  {c560214a-c58f-4522-8752-cb5e88936139}; !- Layer 3

OS:Construction,
  {ef736db5-40a8-44d3-99c8-5b6c029db1e4}, !- Handle
  000_Interior Wall,                      !- Name
  ,                                       !- Surface Rendering Name
  {0e11593e-0071-4695-952b-7ec5db9e1ee2}, !- Layer 1
  {dcce954c-54af-44c5-89f9-260d18ae5a95}, !- Layer 2
  {0e11593e-0071-4695-952b-7ec5db9e1ee2}; !- Layer 3

OS:Construction,
  {6bf16f03-ba95-4570-a517-a9d3e5e35c12}, !- Handle
  000_Interior Ceiling,                   !- Name
  ,                                       !- Surface Rendering Name
  {c560214a-c58f-4522-8752-cb5e88936139}, !- Layer 1
  {5d31ee23-23dc-46a7-bd3f-cdc38a2153cc}, !- Layer 2
  {8d0de2a9-44b6-438d-86fa-94ab12e3acf5}; !- Layer 3

OS:Construction,
  {81773ead-d382-4204-a457-efae4f1424c7}, !- Handle
  ASHRAE_189.1-2009_ExtWindow_ClimateZone 4-5, !- Name
  ,                                       !- Surface Rendering Name
  {1406ec36-a00d-4112-909e-e313b4e95d9e}; !- Layer 1

OS:Construction,
  {cea603de-55a7-4ae5-bd05-3a6c4e3957a1}, !- Handle
  000_Exterior Door,                      !- Name
  ,                                       !- Surface Rendering Name
  {cc54ddf1-151f-489b-99a3-61d2f44f81db}, !- Layer 1
  {cc34dd03-d96b-4bf4-9c6e-d45673c29aba}; !- Layer 2

OS:Construction,
  {93955522-3741-4e0c-a721-d88937bf4432}, !- Handle
  000_Exterior Window,                    !- Name
  ,                                       !- Surface Rendering Name
  {fbbbfd68-7183-43df-89dd-26b49852bafd}, !- Layer 1
  {bbe04c01-4d6c-49bf-a712-6760e2ae48c2}, !- Layer 2
  {fbbbfd68-7183-43df-89dd-26b49852bafd}; !- Layer 3

OS:Construction,
  {cf177343-70d0-4b19-8240-31717677d6a5}, !- Handle
  000_Interior Window,                    !- Name
  ,                                       !- Surface Rendering Name
  {fbbbfd68-7183-43df-89dd-26b49852bafd}; !- Layer 1

OS:Construction,
  {17808fd5-fe88-4b22-acad-3fec27c1d7cd}, !- Handle
  000_Interior Door,                      !- Name
  ,                                       !- Surface Rendering Name
  {da2d2e39-9aea-4368-abe7-413a255a0d73}; !- Layer 1

OS:Material,
  {da2d2e39-9aea-4368-abe7-413a255a0d73}, !- Handle
  000_G05 25mm wood,                      !- Name
  MediumSmooth,                           !- Roughness
  0.025399999999999999,                   !- Thickness {m}
  0.14999999999999999,                    !- Conductivity {W/m-K}
  608,                                    !- Density {kg/m3}
  1630;                                   !- Specific Heat {J/kg-K}

OS:Material,
  {1419c99c-a69d-474b-9e9b-f5b2c92caa1b}, !- Handle
  MAT-CC05 4 HW CONCRETE,                 !- Name
  Rough,                                  !- Roughness
  0.1016,                                 !- Thickness {m}
  1.3109999999999999,                     !- Conductivity {W/m-K}
  2240,                                   !- Density {kg/m3}
  836.8,                                  !- Specific Heat {J/kg-K}
  0.90000000000000002,                    !- Thermal Absorptance
  0.69999999999999996,                    !- Solar Absorptance
  0.69999999999999996;                    !- Visible Absorptance

OS:Material:NoMass,
  {f79b3c75-69c6-4b1a-bc02-10797925851d}, !- Handle
  CP02 CARPET PAD,                        !- Name
  VeryRough,                              !- Roughness
  0.2165,                                 !- Thermal Resistance
  0.90000000000000002,                    !- Thermal Absorptance
  0.69999999999999996,                    !- Solar Absorptance
  0.80000000000000004;                    !- Visible Absorptance

OS:Material:NoMass,
  {70ab1b37-7679-49a7-881c-871adc256839}, !- Handle
  MAT-SHEATH,                             !- Name
  Rough,                                  !- Roughness
  0.36259999999999998,                    !- Thermal Resistance
  0.90000000000000002,                    !- Thermal Absorptance
  0.69999999999999996,                    !- Solar Absorptance
  0.69999999999999996;                    !- Visible Absorptance

OS:Material,
  {6754ebb6-2a96-48ab-bfb0-9adcea3866ec}, !- Handle
  Wall Insulation [39],                   !- Name
  MediumRough,                            !- Roughness
  0.11840000000000001,                    !- Thickness {m}
  0.044999999999999998,                   !- Conductivity {W/m-K}
  265,                                    !- Density {kg/m3}
  836.8,                                  !- Specific Heat {J/kg-K}
  0.90000000000000002,                    !- Thermal Absorptance
  0.69999999999999996,                    !- Solar Absorptance
  0.69999999999999996;                    !- Visible Absorptance

OS:Material,
  {2dca9119-f003-469f-8725-aeaa431dffd3}, !- Handle
  1/2IN Gypsum,                           !- Name
  Smooth,                                 !- Roughness
  0.012699999999999999,                   !- Thickness {m}
  0.16,                                   !- Conductivity {W/m-K}
  784.89999999999998,                     !- Density {kg/m3}
  830,                                    !- Specific Heat {J/kg-K}
  0.90000000000000002,                    !- Thermal Absorptance
  0.92000000000000004,                    !- Solar Absorptance
  0.92000000000000004;                    !- Visible Absorptance

OS:Material,
  {c8d67f42-e714-4d39-9820-a284ace37ecf}, !- Handle
  Roof Membrane,                          !- Name
  VeryRough,                              !- Roughness
  0.0094999999999999998,                  !- Thickness {m}
  0.16,                                   !- Conductivity {W/m-K}
  1121.29,                                !- Density {kg/m3}
  1460,                                   !- Specific Heat {J/kg-K}
  0.90000000000000002,                    !- Thermal Absorptance
  0.69999999999999996,                    !- Solar Absorptance
  0.69999999999999996;                    !- Visible Absorptance

OS:Material,
  {1758ef5e-92dd-4728-9f02-31e6f2e8cd98}, !- Handle
  Roof Insulation [21],                   !- Name
  MediumRough,                            !- Roughness
  0.21049999999999999,                    !- Thickness {m}
  0.049000000000000002,                   !- Conductivity {W/m-K}
  265,                                    !- Density {kg/m3}
  836.8,                                  !- Specific Heat {J/kg-K}
  0.90000000000000002,                    !- Thermal Absorptance
  0.69999999999999996,                    !- Solar Absorptance
  0.69999999999999996;                    !- Visible Absorptance

OS:Material,
  {ece7f194-8f31-42cb-8319-c42def366f6a}, !- Handle
  Metal Decking,                          !- Name
  MediumSmooth,                           !- Roughness
  0.0015,                                 !- Thickness {m}
  45.006,                                 !- Conductivity {W/m-K}
  7680,                                   !- Density {kg/m3}
  418.4,                                  !- Specific Heat {J/kg-K}
  0.90000000000000002,                    !- Thermal Absorptance
  0.69999999999999996,                    !- Solar Absorptance
  0.29999999999999999;                    !- Visible Absorptance

OS:Material,
  {8d0de2a9-44b6-438d-86fa-94ab12e3acf5}, !- Handle
  000_F16 Acoustic tile,                  !- Name
  MediumSmooth,                           !- Roughness
  0.019099999999999999,                   !- Thickness {m}
  0.059999999999999998,                   !- Conductivity {W/m-K}
  368,                                    !- Density {kg/m3}
  590;                                    !- Specific Heat {J/kg-K}

OS:Material:AirGap,
  {5d31ee23-23dc-46a7-bd3f-cdc38a2153cc}, !- Handle
  000_F05 Ceiling air space resistance,   !- Name
  0.17999999999999999;                    !- Thermal Resistance

OS:Material,
  {c560214a-c58f-4522-8752-cb5e88936139}, !- Handle
  000_M11 100mm lightweight concrete,     !- Name
  MediumRough,                            !- Roughness
  0.1016,                                 !- Thickness {m}
  0.53000000000000003,                    !- Conductivity {W/m-K}
  1280,                                   !- Density {kg/m3}
  840;                                    !- Specific Heat {J/kg-K}

OS:Material,
  {0e11593e-0071-4695-952b-7ec5db9e1ee2}, !- Handle