
OS:Version,
  {07c93cd3-f447-4e1d-b7cf-5daa2c2eb715}, !- Handle
  2.8.0;                                  !- Version Identifier

OS:BuildingStory,
  {e2e1c941-33c3-4ff5-bc1e-fe531e220083}, !- Handle
  Story 1,                                !- Name
  0,                                      !- Nominal Z Coordinate {m}
  4,                                      !- Nominal Floor to Floor Height {m}
  ,                                       !- Default Construction Set Name
  ,                                       !- Default Schedule Set Name
  ;                                       !- Group Rendering Name

OS:Space,
  {86f44356-d6d2-4e01-b231-f529864f0066}, !- Handle
  Story 1 Core Space,                     !- Name
  ,                                       !- Space Type Name
  ,                                       !- Default Construction Set Name
  ,                                       !- Default Schedule Set Name
  -0,                                     !- Direction of Relative North {deg}
  0,                                      !- X Origin {m}
  0,                                      !- Y Origin {m}
  0,                                      !- Z Origin {m}
  {e2e1c941-33c3-4ff5-bc1e-fe531e220083}, !- Building Story Name
  {460c6b8c-399d-4d4d-b532-a1b0f7fea6c6}; !- Thermal Zone Name

OS:Surface,
  {762163e9-0177-492d-bb8a-57a9930b5080}, !- Handle
  Surface 1,                              !- Name
  Floor,                                  !- Surface Type
  ,                                       !- Construction Name
  {86f44356-d6d2-4e01-b231-f529864f0066}, !- Space Name
  Ground,                                 !- Outside Boundary Condition
  ,                                       !- Outside Boundary Condition Object
  NoSun,                                  !- Sun Exposure
  NoWind,                                 !- Wind Exposure
  ,                                       !- View Factor to Ground
  ,                                       !- Number of Vertices
  0, 0, 0,                                !- X,Y,Z Vertex 1 {m}
  0, 50, 0,                               !- X,Y,Z Vertex 2 {m}
  100, 50, 0,                             !- X,Y,Z Vertex 3 {m}
  100, 0, 0;                              !- X,Y,Z Vertex 4 {m}

OS:Surface,
  {27491376-53c3-4a45-aa9c-4b34e56e7ccc}, !- Handle
  Surface 2,                              !- Name
  Wall,                                   !- Surface Type
  ,                                       !- Construction Name
  {86f44356-d6d2-4e01-b231-f529864f0066}, !- Space Name
  Outdoors,                               !- Outside Boundary Condition
  ,                                       !- Outside Boundary Condition Object
  SunExposed,                             !- Sun Exposure
  WindExposed,                            !- Wind Exposure
  ,                                       !- View Factor to Ground
  ,                                       !- Number of Vertices
  0, 50, 4,                               !- X,Y,Z Vertex 1 {m}
  0, 50, 0,                               !- X,Y,Z Vertex 2 {m}
  0, 0, 0,                                !- X,Y,Z Vertex 3 {m}
  0, 0, 4;                                !- X,Y,Z Vertex 4 {m}

OS:Surface,
  {61f26d43-0d47-4b73-b7e7-53f4539dbdf5}, !- Handle
  Surface 3,                              !- Name
  Wall,                                   !- Surface Type
  ,                                       !- Construction Name
  {86f44356-d6d2-4e01-b231-f529864f0066}, !- Space Name
  Outdoors,                               !- Outside Boundary Condition
  ,                                       !- Outside Boundary Condition Object
  SunExposed,                             !- Sun Exposure
  WindExposed,                            !- Wind Exposure
  ,                                       !- View Factor to Ground
  ,                                       !- Number of Vertices
  100, 50, 4,                             !- X,Y,Z Vertex 1 {m}
  100, 50, 0,                             !- X,Y,Z Vertex 2 {m}
  0, 50, 0,                               !- X,Y,Z Vertex 3 {m}
  0, 50, 4;                               !- X,Y,Z Vertex 4 {m}

OS:Surface,
  {05e7defb-7f71-4e55-b53f-af11135885e6}, !- Handle
  Surface 4,                              !- Name
  Wall,                                   !- Surface Type
  ,                                       !- Construction Name
  {86f44356-d6d2-4e01-b231-f529864f0066}, !- Space Name
  Outdoors,                               !- Outside Boundary Condition
  ,                                       !- Outside Boundary Condition Object
  SunExposed,                             !- Sun Exposure
  WindExposed,                            !- Wind Exposure
  ,                                       !- View Factor to Ground
  ,                                       !- Number of Vertices
  100, 0, 4,                              !- X,Y,Z Vertex 1 {m}
  100, 0, 0,                              !- X,Y,Z Vertex 2 {m}
  100, 50, 0,                             !- X,Y,Z Vertex 3 {m}
  100, 50, 4;                             !- X,Y,Z Vertex 4 {m}

OS:Surface,
  {17463be2-db90-4a8d-b84a-2157b4c5f302}, !- Handle
  Surface 5,                              !- Name
  Wall,                                   !- Surface Type
  ,                                       !- Construction Name
  {86f44356-d6d2-4e01-b231-f529864f0066}, !- Space Name
  Outdoors,                               !- Outside Boundary Condition
  ,                                       !- Outside Boundary Condition Object
  SunExposed,                             !- Sun Exposure
  WindExposed,                            !- Wind Exposure
  ,                                       !- View Factor to Ground
  ,                                       !- Number of Vertices
  0, 0, 4,                                !- X,Y,Z Vertex 1 {m}
  0, 0, 0,                                !- X,Y,Z Vertex 2 {m}
  100, 0, 0,                              !- X,Y,Z Vertex 3 {m}
  100, 0, 4;                              !- X,Y,Z Vertex 4 {m}

OS:Surface,
  {898f55fe-a58c-483d-a5d9-6d4258147e35}, !- Handle
  Surface 6,                              !- Name
  RoofCeiling,                            !- Surface Type
  ,                                       !- Construction Name
  {86f44356-d6d2-4e01-b231-f529864f0066}, !- Space Name
  Outdoors,                               !- Outside Boundary Condition
  ,                                       !- Outside Boundary Condition Object
  SunExposed,                             !- Sun Exposure
  WindExposed,                            !- Wind Exposure
  ,                                       !- View Factor to Ground
  ,                                       !- Number of Vertices
  100, 0, 4,                              !- X,Y,Z Vertex 1 {m}
  100, 50, 4,                             !- X,Y,Z Vertex 2 {m}
  0, 50, 4,                               !- X,Y,Z Vertex 3 {m}
  0, 0, 4;                                !- X,Y,Z Vertex 4 {m}

OS:ThermalZone,
  {460c6b8c-399d-4d4d-b532-a1b0f7fea6c6}, !- Handle
  Story 1 Core Thermal Zone,              !- Name
  ,                                       !- Multiplier
  ,                                       !- Ceiling Height {m}
  ,                                       !- Volume {m3}
  ,                                       !- Floor Area {m2}
  ,                                       !- Zone Inside Convection Algorithm
  ,                                       !- Zone Outside Convection Algorithm
  ,                                       !- Zone Conditioning Equipment List Name
  {5c8adb59-ce9e-4618-8e1f-e37041c14f0c}, !- Zone Air Inlet Port List
  {797a84a3-4b34-4750-b4c3-e63c2e8e03f4}, !- Zone Air Exhaust Port List
  {ddeb0563-7151-4966-a441-7b8f0e524a48}, !- Zone Air Node Name
  {dc9f271d-9f58-4fa6-895e-d5685fa753c5}, !- Zone Return Air Port List
  ,                                       !- Primary Daylighting Control Name
  ,                                       !- Fraction of Zone Controlled by Primary Daylighting Control
  ,                                       !- Secondary Daylighting Control Name
  ,                                       !- Fraction of Zone Controlled by Secondary Daylighting Control
  ,                                       !- Illuminance Map Name
  ,                                       !- Group Rendering Name
  {974c3dc3-75ec-49a7-a594-ca78f2e6b131}, !- Thermostat Name
  No;                                     !- Use Ideal Air Loads

OS:Node,
  {a443e8a5-2e1e-4448-916c-b0aa51155e43}, !- Handle
  Node 1,                                 !- Name
  {ddeb0563-7151-4966-a441-7b8f0e524a48}, !- Inlet Port
  ;                                       !- Outlet Port

OS:Connection,
  {ddeb0563-7151-4966-a441-7b8f0e524a48}, !- Handle
  {6b664413-6c27-4857-8d15-05368853f796}, !- Name
  {460c6b8c-399d-4d4d-b532-a1b0f7fea6c6}, !- Source Object
  11,                                     !- Outlet Port
  {a443e8a5-2e1e-4448-916c-b0aa51155e43}, !- Target Object
  2;                                      !- Inlet Port

OS:PortList,
  {5c8adb59-ce9e-4618-8e1f-e37041c14f0c}, !- Handle
  {52005620-f445-4af9-9ff1-55280f4be884}, !- Name
  {460c6b8c-399d-4d4d-b532-a1b0f7fea6c6}, !- HVAC Component
  {9f88b301-2013-4ba3-b6a3-dce153f73581}; !- Port 1

OS:PortList,
  {797a84a3-4b34-4750-b4c3-e63c2e8e03f4}, !- Handle
  {7aaa1c37-9f4e-486d-904a-01dd28b46e97}, !- Name
  {460c6b8c-399d-4d4d-b532-a1b0f7fea6c6}; !- HVAC Component

OS:PortList,
  {dc9f271d-9f58-4fa6-895e-d5685fa753c5}, !- Handle
  {206bd5e5-b052-42b1-8267-52678fc95a21}, !- Name
  {460c6b8c-399d-4d4d-b532-a1b0f7fea6c6}, !- HVAC Component
  {7f48ed76-f969-4ed7-9b23-42c9cdaafbf9}; !- Port 1

OS:Sizing:Zone,
  {6587c1a0-2d48-4f47-be75-8c5fc7a8ed4c}, !- Handle
  {460c6b8c-399d-4d4d-b532-a1b0f7fea6c6}, !- Zone or ZoneList Name
  SupplyAirTemperature,                   !- Zone Cooling Design Supply Air Temperature Input Method
  14,                                     !- Zone Cooling Design Supply Air Temperature {C}
  11.11,                                  !- Zone Cooling Design Supply Air Temperature Difference {deltaC}
  SupplyAirTemperature,                   !- Zone Heating Design Supply Air Temperature Input Method
  40,                                     !- Zone Heating Design Supply Air Temperature {C}
  11.11,                                  !- Zone Heating Design Supply Air Temperature Difference {deltaC}
  0.0085,                                 !- Zone Cooling Design Supply Air Humidity Ratio {kg-H2O/kg-air}
  0.008,                                  !- Zone Heating Design Supply Air Humidity Ratio {kg-H2O/kg-air}
  ,                                       !- Zone Heating Sizing Factor
  ,                                       !- Zone Cooling Sizing Factor
  DesignDay,                              !- Cooling Design Air Flow Method
  ,                                       !- Cooling Design Air Flow Rate {m3/s}
  ,                                       !- Cooling Minimum Air Flow per Zone Floor Area {m3/s-m2}
  ,                                       !- Cooling Minimum Air Flow {m3/s}
  ,                                       !- Cooling Minimum Air Flow Fraction
  DesignDay,                              !- Heating Design Air Flow Method
  ,                                       !- Heating Design Air Flow Rate {m3/s}
  ,                                       !- Heating Maximum Air Flow per Zone Floor Area {m3/s-m2}
  ,                                       !- Heating Maximum Air Flow {m3/s}
  ,                                       !- Heating Maximum Air Flow Fraction
  ,                                       !- Design Zone Air Distribution Effectiveness in Cooling Mode
  ,                                       !- Design Zone Air Distribution Effectiveness in Heating Mode
  No,                                     !- Account for Dedicated Outdoor Air System
  NeutralSupplyAir,                       !- Dedicated Outdoor Air System Control Strategy
  autosize,                               !- Dedicated Outdoor Air Low Setpoint Temperature for Design {C}
  autosize;                               !- Dedicated Outdoor Air High Setpoint Temperature for Design {C}

OS:ZoneHVAC:EquipmentList,
  {f341c1e6-f915-4fe3-8603-3355d4ca569b}, !- Handle
  Zone HVAC Equipment List 1,             !- Name
  {460c6b8c-399d-4d4d-b532-a1b0f7fea6c6}, !- Thermal Zone
  ,                                       !- Load Distribution Scheme
  {793f8bf5-4817-48f1-ae60-13ab0edb1d70}, !- Zone Equipment 1
  1,                                      !- Zone Equipment Cooling Sequence 1
  1,                                      !- Zone Equipment Heating or No-Load Sequence 1
  ,                                       !- Zone Equipment Sequential Cooling Fraction 1
  ;                                       !- Zone Equipment Sequential Heating Fraction 1

OS:SubSurface,
  {8c09c0c8-5063-48bc-9d37-26db93440ffd}, !- Handle
  Sub Surface 1,                          !- Name
  FixedWindow,                            !- Sub Surface Type
  ,                                       !- Construction Name
  {17463be2-db90-4a8d-b84a-2157b4c5f302}, !- Surface Name
  ,                                       !- Outside Boundary Condition Object
  ,                                       !- View Factor to Ground
  ,                                       !- Shading Control Name
  ,                                       !- Frame and Divider Name
  ,                                       !- Multiplier
  ,                                       !- Number of Vertices
  0.0254, 0, 2.60081321311226,            !- X,Y,Z Vertex 1 {m}
  0.0254, 0, 1,                           !- X,Y,Z Vertex 2 {m}
  99.9746, 0, 1,                          !- X,Y,Z Vertex 3 {m}
  99.9746, 0, 2.60081321311226;           !- X,Y,Z Vertex 4 {m}

OS:SubSurface,
  {8e2b8779-2e64-4bfe-97ac-8292f84b8fac}, !- Handle
  Sub Surface 2,                          !- Name
  FixedWindow,                            !- Sub Surface Type
  ,                                       !- Construction Name
  {05e7defb-7f71-4e55-b53f-af11135885e6}, !- Surface Name
  ,                                       !- Outside Boundary Condition Object
  ,                                       !- View Factor to Ground
  ,                                       !- Shading Control Name
  ,                                       !- Frame and Divider Name
  ,                                       !- Multiplier
  ,                                       !- Number of Vertices
  100, 0.0254, 2.60162725328934,          !- X,Y,Z Vertex 1 {m}
  100, 0.0254, 1,                         !- X,Y,Z Vertex 2 {m}
  100, 49.9746, 1,                        !- X,Y,Z Vertex 3 {m}
  100, 49.9746, 2.60162725328934;         !- X,Y,Z Vertex 4 {m}

OS:SubSurface,
  {c2f40d33-12c3-4131-9283-6a57af9230e7}, !- Handle
  Sub Surface 3,                          !- Name
  FixedWindow,                            !- Sub Surface Type
  ,                                       !- Construction Name
  {61f26d43-0d47-4b73-b7e7-53f4539dbdf5}, !- Surface Name
  ,                                       !- Outside Boundary Condition Object
  ,                                       !- View Factor to Ground
  ,                                       !- Shading Control Name
  ,                                       !- Frame and Divider Name
  ,                                       !- Multiplier
  ,                                       !- Number of Vertices
  99.9746, 50, 2.60081321311226,          !- X,Y,Z Vertex 1 {m}
  99.9746, 50, 1,                         !- X,Y,Z Vertex 2 {m}
  0.0253999999999905, 50, 1,              !- X,Y,Z Vertex 3 {m}
  0.0253999999999905, 50, 2.60081321311226; !- X,Y,Z Vertex 4 {m}

OS:SubSurface,
  {16a8b3bd-df5e-4ce6-8f3a-830d7b4614b5}, !- Handle
  Sub Surface 4,                          !- Name
  FixedWindow,                            !- Sub Surface Type
  ,                                       !- Construction Name
  {27491376-53c3-4a45-aa9c-4b34e56e7ccc}, !- Surface Name
  ,                                       !- Outside Boundary Condition Object
  ,                                       !- View Factor to Ground
  ,                                       !- Shading Control Name
  ,                                       !- Frame and Divider Name
  ,                                       !- Multiplier
  ,                                       !- Number of Vertices
  0, 49.9746, 2.60162725328934,           !- X,Y,Z Vertex 1 {m}
  0, 49.9746, 1,                          !- X,Y,Z Vertex 2 {m}
  0, 0.0254000000000048, 1,               !- X,Y,Z Vertex 3 {m}
  0, 0.0254000000000048, 2.60162725328934; !- X,Y,Z Vertex 4 {m}

OS:Schedule:Ruleset,
  {bc5dd66f-e557-4c7a-96ff-f8c2a0f91668}, !- Handle
  Cooling Sch,                            !- Name
  {ff585eb9-e328-494e-93af-aa6e9df67060}, !- Schedule Type Limits Name
  {55bf3547-4eb3-48db-ba26-9b117800888d}; !- Default Day Schedule Name

OS:Schedule:Day,
  {55bf3547-4eb3-48db-ba26-9b117800888d}, !- Handle
  Cooling Sch Default,                    !- Name
  {ff585eb9-e328-494e-93af-aa6e9df67060}, !- Schedule Type Limits Name
  ,                                       !- Interpolate to Timestep
  24,                                     !- Hour 1
  0,                                      !- Minute 1
  28;                                     !- Value Until Time 1

OS:Schedule:Ruleset,
  {bf900bb3-c1fa-4f4d-a61e-93a8474f1e36}, !- Handle
  Heating Sch,                            !- Name
  {ff585eb9-e328-494e-93af-aa6e9df67060}, !- Schedule Type Limits Name
  {763727c8-9c65-4f9d-8e4e-fe65d38bc5ac}; !- Default Day Schedule Name

OS:Schedule:Day,
  {763727c8-9c65-4f9d-8e4e-fe65d38bc5ac}, !- Handle
  Heating Sch Default,                    !- Name
  {ff585eb9-e328-494e-93af-aa6e9df67060}, !- Schedule Type Limits Name
  ,                                       !- Interpolate to Timestep
  24,                                     !- Hour 1
  0,                                      !- Minute 1
  24;                                     !- Value Until Time 1

OS:ThermostatSetpoint:DualSetpoint,
  {974c3dc3-75ec-49a7-a594-ca78f2e6b131}, !- Handle
  Thermostat Setpoint Dual Setpoint 1,    !- Name
  {bf900bb3-c1fa-4f4d-a61e-93a8474f1e36}, !- Heating Setpoint Temperature Schedule Name
  {bc5dd66f-e557-4c7a-96ff-f8c2a0f91668}; !- Cooling Setpoint Temperature Schedule Name

OS:ScheduleTypeLimits,
  {ff585eb9-e328-494e-93af-aa6e9df67060}, !- Handle
  Temperature,                            !- Name
  ,                                       !- Lower Limit Value
  ,                                       !- Upper Limit Value
  Continuous,                             !- Numeric Type
  Temperature;                            !- Unit Type

OS:DefaultConstructionSet,
  {ceb4db51-94a2-4e35-bf2a-f06bb9005611}, ! Handle
  ASHRAE_189.1-2009_ClimateZone 4-5 (mdoff)_ConstSet, ! Name
  {a99fb67e-93bc-458b-adb1-bf7d3525f3c9}, ! Default Exterior Surface Constructions Name
  {eb4594a9-58a3-44a4-968a-fdadc8714afc}, ! Default Interior Surface Constructions Name
  {a5b45129-35ce-4bb8-993f-2c08198d703a}, ! Default Ground Contact Surface Constructions Name
  {eb666adc-85d2-4849-be64-c2d7ccdc89d5}, ! Default Exterior SubSurface Constructions Name
  {596372d5-31fe-4c18-820d-c71f3b75d22d}, ! Default Interior SubSurface Constructions Name
  {99a26021-ff72-437d-bbeb-9af79047dc39}, ! Interior Partition Construction Name
  ,                                       ! Space Shading Construction Name
  ,                                       ! Building Shading Construction Name
  ,                                       ! Site Shading Construction Name
  ;                                       !- Adiabatic Surface Construction Name

OS:DefaultSurfaceConstructions,
  {a99fb67e-93bc-458b-adb1-bf7d3525f3c9}, ! Handle
  ASHRAE_189.1-2009_ClimateZone 4-5 (mdoff)_Exterior_DefSurfCons, ! Name
  {ca4d63ad-5708-4136-a30e-fe17f3b2d597}, ! Floor Construction Name
  {aa417237-75d2-43fd-9fd9-d2edea8b82cc}, ! Wall Construction Name
  {4559ced4-66e3-4c23-9b84-101cb0127ffb}; ! Roof Ceiling Construction Name

OS:DefaultSurfaceConstructions,
  {eb4594a9-58a3-44a4-968a-fdadc8714afc}, ! Handle
  000_Interior_DefSurfCons,               ! Name
  {d7314bf4-f38f-4a13-8159-a5f6679b7916}, ! Floor Construction Name
  {1804378c-6b21-47dc-bc5a-48c2058ef70a}, ! Wall Construction Name
  {611d48e0-5bfe-4c31-ad3c-ddd200bb9c04}; ! Roof Ceiling Construction Name

OS:DefaultSurfaceConstructions,
  {a5b45129-35ce-4bb8-993f-2c08198d703a}, ! Handle
  000_Ground_DefSurfCons,                 ! Name
  {ca4d63ad-5708-4136-a30e-fe17f3b2d597}, ! Floor Construction Name
  {ca4d63ad-5708-4136-a30e-fe17f3b2d597}, ! Wall Construction Name
  {ca4d63ad-5708-4136-a30e-fe17f3b2d597}; ! Roof Ceiling Construction Name

OS:DefaultSubSurfaceConstructions,
  {eb666adc-85d2-4849-be64-c2d7ccdc89d5}, ! Handle
  ASHRAE_189.1-2009_ClimateZone 4-5 (mdoff)_Exterior_DefSubCons, ! Name
  {8e976a1a-8763-4cd0-9016-dc807e9065c8}, ! Fixed Window Construction Name
  {8e976a1a-8763-4cd0-9016-dc807e9065c8}, ! Operable Window Construction Name
  {01ff6b39-4353-4fea-ac5e-8626353f6816}, ! Door Construction Name
  {6a806ad2-d907-456d-ab9b-12e3c408b28a}, ! Glass Door Construction Name
  ,                                       ! Overhead Door Construction Name
  {6a806ad2-d907-456d-ab9b-12e3c408b28a}, ! Skylight Construction Name
  {d35ef5dc-07ae-4209-92de-efeb56aa11c6}, ! Tubular Daylight Dome Construction Name
  {d35ef5dc-07ae-4209-92de-efeb56aa11c6}; ! Tubular Daylight Diffuser Construction Name

OS:DefaultSubSurfaceConstructions,
  {596372d5-31fe-4c18-820d-c71f3b75d22d}, ! Handle
  000_Interior_DefSubCons,                ! Name
  {d35ef5dc-07ae-4209-92de-efeb56aa11c6}, ! Fixed Window Construction Name
  {d35ef5dc-07ae-4209-92de-efeb56aa11c6}, ! Operable Window Construction Name
  {5f2352ca-8e5c-4937-9d3f-18b7c7230951}, ! Door Construction Name
  {6a806ad2-d907-456d-ab9b-12e3c408b28a}, ! Glass Door Construction Name
  ,                                       ! Overhead Door Construction Name
  {6a806ad2-d907-456d-ab9b-12e3c408b28a}, ! Skylight Construction Name
  {d35ef5dc-07ae-4209-92de-efeb56aa11c6}, ! Tubular Daylight Dome Construction Name
  {d35ef5dc-07ae-4209-92de-efeb56aa11c6}; ! Tubular Daylight Diffuser Construction Name

OS:Construction,
  {99a26021-ff72-437d-bbeb-9af79047dc39}, ! Handle
  000_Interior Partition,                 ! Name
  ,                                       ! Surface Rendering Name
  {0f609ca5-fdda-4446-ba40-4c58df176a37}; ! Layer 1

OS:Construction,
  {ca4d63ad-5708-4136-a30e-fe17f3b2d597}, ! Handle
  000_ExtSlabCarpet_4in_ClimateZone 1-8,  ! Name
  ,                                       ! Surface Rendering Name
  {2a283fd4-f394-4815-a11a-b16e3d926628}, ! Layer 1
  {b983915d-3e2c-43e1-a1c3-4c638cba3846}; ! Layer 2

OS:Construction,
  {aa417237-75d2-43fd-9fd9-d2edea8b82cc}, ! Handle
  ASHRAE_189.1-2009_ExtWall_SteelFrame_ClimateZone 4-8, ! Name
  ,                                       ! Surface Rendering Name
  {af7d28e0-57c3-42c0-8dcd-7458a2c18a81}, ! Layer 1
  {7f9510e0-9918-4126-9b95-83509cf597fd}, ! Layer 2
  {db129449-9f14-469e-8006-d5bc77aa50a0}; ! Layer 3

OS:Construction,
  {4559ced4-66e3-4c23-9b84-101cb0127ffb}, ! Handle
  ASHRAE_189.1-2009_ExtRoof_IEAD_ClimateZone 2-5, ! Name
  ,                                       ! Surface Rendering Name
  {6bcac654-2926-42a2-8e2e-27744c9ee609}, ! Layer 1
  {5a78842b-3dac-4db9-9109-d7dd249efdec}, ! Layer 2
  {fa4cf29e-1dd8-48bd-a1f7-71709861632d}; ! Layer 3

OS:Construction,
  {d7314bf4-f38f-4a13-8159-a5f6679b7916}, ! Handle
  000_Interior Floor,                     ! Name
  ,                                       ! Surface Rendering Name
  {4c723bd4-5d64-496d-a98e-c8fcc5cf34d1}, ! Layer 1
  {d07c7739-7302-4d9f-88f8-1524af5b3d77}, ! Layer 2
  {3d726ab5-da03-4b4f-91d6-665f58c0e39a}; ! Layer 3

OS:Construction,
  {1804378c-6b21-47dc-bc5a-48c2058ef70a}, ! Handle
  000_Interior Wall,                      ! Name
  ,                                       ! Surface Rendering Name
  {6381eddb-fff3-48b5-9be3-d48302a796be}, ! Layer 1
  {93da7434-89ac-4e4e-ba3f-67e4566be880}, ! Layer 2
  {6381eddb-fff3-48b5-9be3-d48302a796be}; ! Layer 3

OS:Construction,
  {611d48e0-5bfe-4c31-ad3c-ddd200bb9c04}, ! Handle
  000_Interior Ceiling,                   ! Name
  ,                                       ! Surface Rendering Name
  {3d726ab5-da03-4b4f-91d6-665f58c0e39a}, ! Layer 1
  {d07c7739-7302-4d9f-88f8-1524af5b3d77}, ! Layer 2
  {4c723bd4-5d64-496d-a98e-c8fcc5cf34d1}; ! Layer 3

OS:Construction,
  {8e976a1a-8763-4cd0-9016-dc807e9065c8}, ! Handle
  ASHRAE_189.1-2009_ExtWindow_ClimateZone 4-5, ! Name
  ,                                       ! Surface Rendering Name
  {6fbc2d04-b4a3-4ea7-ab3d-3e289347f30d}; ! Layer 1

OS:Construction,
  {01ff6b39-4353-4fea-ac5e-8626353f6816}, ! Handle
  000_Exterior Door,                      ! Name
  ,                                       ! Surface Rendering Name
  {522fd2e2-9b62-4ab5-a3db-00b4cf42f697}, ! Layer 1
  {ddf76fa1-ee80-4e43-bb45-89f42b390a3b}; ! Layer 2

OS:Construction,
  {6a806ad2-d907-456d-ab9b-12e3c408b28a}, ! Handle
  000_Exterior Window,                    ! Name
  ,                                       ! Surface Rendering Name
  {b3273ce9-4107-47ea-b918-bf9c54692cce}, ! Layer 1
  {c8810267-75e2-4752-857e-e3aac22f78e7}, ! Layer 2
  {b3273ce9-4107-47ea-b918-bf9c54692cce}; ! Layer 3

OS:Construction,
  {d35ef5dc-07ae-4209-92de-efeb56aa11c6}, ! Handle
  000_Interior Window,                    ! Name
  ,                                       ! Surface Rendering Name
  {b3273ce9-4107-47ea-b918-bf9c54692cce}; ! Layer 1

OS:Construction,
  {5f2352ca-8e5c-4937-9d3f-18b7c7230951}, ! Handle
  000_Interior Door,                      ! Name
  ,                                       ! Surface Rendering Name
  {0f609ca5-fdda-4446-ba40-4c58df176a37}; ! Layer 1

OS:Material,
  {0f609ca5-fdda-4446-ba40-4c58df176a37}, ! Handle
  000_G05 25mm wood,                      ! Name
  MediumSmooth,                           ! Roughness
  0.025399999999999999,                   ! Thickness
  0.14999999999999999,                    ! Conductivity
  608,                                    ! Density
  1630;                                   ! Specific Heat

OS:Material,
  {2a283fd4-f394-4815-a11a-b16e3d926628}, ! Handle
  MAT-CC05 4 HW CONCRETE,                 ! Name
  Rough,                                  ! Roughness
  0.1016,                                 ! Thickness
  1.3109999999999999,                     ! Conductivity
  2240,                                   ! Density
  836.79999999999995,                     ! Specific Heat
  0.90000000000000002,                    ! Thermal Absorptance
  0.69999999999999996,                    ! Solar Absorptance
  0.69999999999999996;                    ! Visible Absorptance

OS:Material:NoMass,
  {b983915d-3e2c-43e1-a1c3-4c638cba3846}, ! Handle
  CP02 CARPET PAD,                        ! Name
  VeryRough,                              ! Roughness
  0.2165,                                 ! Thermal Resistance
  0.90000000000000002,                    ! Thermal Absorptance
  0.69999999999999996,                    ! Solar Absorptance
  0.80000000000000004;                    ! Visible Absorptance

OS:Material:NoMass,
  {af7d28e0-57c3-42c0-8dcd-7458a2c18a81}, ! Handle
  MAT-SHEATH,                             ! Name
  Rough,                                  ! Roughness
  0.36259999999999998,                    ! Thermal Resistance
  0.90000000000000002,                    ! Thermal Absorptance
  0.69999999999999996,                    ! Solar Absorptance
  0.69999999999999996;                    ! Visible Absorptance

OS:Material,
  {7f9510e0-9918-4126-9b95-83509cf597fd}, ! Handle
  Wall Insulation [39],                   ! Name
  MediumRough,                            ! Roughness
  0.11840000000000001,                    ! Thickness
  0.044999999999999998,                   ! Conductivity
  265,                                    ! Density
  836.79999999999995,                     ! Specific Heat
  0.90000000000000002,                    ! Thermal Absorptance
  0.69999999999999996,                    ! Solar Absorptance
  0.69999999999999996;                    ! Visible Absorptance

OS:Material,
  {db129449-9f14-469e-8006-d5bc77aa50a0}, ! Handle
  1/2IN Gypsum,                           ! Name
  Smooth,                                 ! Roughness
  0.012699999999999999,                   ! Thickness
  0.16,                                   ! Conductivity
  784.89999999999998,                     ! Density
  830,                                    ! Specific Heat
  0.90000000000000002,                    ! Thermal Absorptance
  0.92000000000000004,                    ! Solar Absorptance
  0.92000000000000004;                    ! Visible Absorptance

OS:Material,
  {6bcac654-2926-42a2-8e2e-27744c9ee609}, ! Handle
  Roof Membrane,                          ! Name
  VeryRough,                              ! Roughness
  0.0094999999999999998,                  ! Thickness
  0.16,                                   ! Conductivity
  1121.29,                                ! Density
  1460,                                   ! Specific Heat
  0.90000000000000002,                    ! Thermal Absorptance
  0.69999999999999996,                    ! Solar Absorptance
  0.69999999999999996;                    ! Visible Absorptance

OS:Material,
  {5a78842b-3dac-4db9-9109-d7dd249efdec}, ! Handle
  Roof Insulation [21],                   ! Name
  MediumRough,                            ! Roughness
  0.21049999999999999,                    ! Thickness
  0.049000000000000002,                   ! Conductivity
  265,                                    ! Density
  836.79999999999995,                     ! Specific Heat
  0.90000000000000002,                    ! Thermal Absorptance