
OS:Version,
  {3c66a182-8e5d-4479-8a27-7bd9be46ecb4}, !- Handle
  3.1.0;                                  !- Version Identifier

OS:BuildingStory,
  {64b6d4da-e2a8-4b9d-bd5b-b8747ae38452}, !- Handle
  Story 1,                                !- Name
  0,                                      !- Nominal Z Coordinate {m}
  4,                                      !- Nominal Floor to Floor Height {m}
  ,                                       !- Default Construction Set Name
  ,                                       !- Default Schedule Set Name
  ;                                       !- Group Rendering Name

OS:Space,
  {6efb8af1-f105-4167-9383-23e0ffc604c9}, !- Handle
  Story 1 Core Space,                     !- Name
  ,                                       !- Space Type Name
  ,                                       !- Default Construction Set Name
  ,                                       !- Default Schedule Set Name
  -0,                                     !- Direction of Relative North {deg}
  0,                                      !- X Origin {m}
  0,                                      !- Y Origin {m}
  0,                                      !- Z Origin {m}
  {64b6d4da-e2a8-4b9d-bd5b-b8747ae38452}, !- Building Story Name
  {12efbeee-736a-46fb-b958-e43422ec900e}; !- Thermal Zone Name

OS:Surface,
  {06f01c77-3ffa-4986-bc3c-480a89175be1}, !- Handle
  Surface 1,                              !- Name
  Floor,                                  !- Surface Type
  ,                                       !- Construction Name
  {6efb8af1-f105-4167-9383-23e0ffc604c9}, !- Space Name
  Ground,                                 !- Outside Boundary Condition
  ,                                       !- Outside Boundary Condition Object
  NoSun,                                  !- Sun Exposure
  NoWind,                                 !- Wind Exposure
  ,                                       !- View Factor to Ground
  ,                                       !- Number of Vertices
  0, 0, 0,                                !- X,Y,Z Vertex 1 {m}
  0, 50, 0,                               !- X,Y,Z Vertex 2 {m}
  100, 50, 0,                             !- X,Y,Z Vertex 3 {m}
  100, 0, 0;                              !- X,Y,Z Vertex 4 {m}

OS:Surface,
  {0dec7e6b-3301-4067-b4ec-ca2f72ff5860}, !- Handle
  Surface 2,                              !- Name
  Wall,                                   !- Surface Type
  ,                                       !- Construction Name
  {6efb8af1-f105-4167-9383-23e0ffc604c9}, !- Space Name
  Outdoors,                               !- Outside Boundary Condition
  ,                                       !- Outside Boundary Condition Object
  SunExposed,                             !- Sun Exposure
  WindExposed,                            !- Wind Exposure
  ,                                       !- View Factor to Ground
  ,                                       !- Number of Vertices
  0, 50, 4,                               !- X,Y,Z Vertex 1 {m}
  0, 50, 0,                               !- X,Y,Z Vertex 2 {m}
  0, 0, 0,                                !- X,Y,Z Vertex 3 {m}
  0, 0, 4;                                !- X,Y,Z Vertex 4 {m}

OS:Surface,
  {81ce909a-65d7-4f17-8f45-20dc323e95cc}, !- Handle
  Surface 3,                              !- Name
  Wall,                                   !- Surface Type
  ,                                       !- Construction Name
  {6efb8af1-f105-4167-9383-23e0ffc604c9}, !- Space Name
  Outdoors,                               !- Outside Boundary Condition
  ,                                       !- Outside Boundary Condition Object
  SunExposed,                             !- Sun Exposure
  WindExposed,                            !- Wind Exposure
  ,                                       !- View Factor to Ground
  ,                                       !- Number of Vertices
  100, 50, 4,                             !- X,Y,Z Vertex 1 {m}
  100, 50, 0,                             !- X,Y,Z Vertex 2 {m}
  0, 50, 0,                               !- X,Y,Z Vertex 3 {m}
  0, 50, 4;                               !- X,Y,Z Vertex 4 {m}

OS:Surface,
  {d68dd8fa-dd5d-44bd-b14c-f02466d9ec25}, !- Handle
  Surface 4,                              !- Name
  Wall,                                   !- Surface Type
  ,                                       !- Construction Name
  {6efb8af1-f105-4167-9383-23e0ffc604c9}, !- Space Name
  Outdoors,                               !- Outside Boundary Condition
  ,                                       !- Outside Boundary Condition Object
  SunExposed,                             !- Sun Exposure
  WindExposed,                            !- Wind Exposure
  ,                                       !- View Factor to Ground
  ,                                       !- Number of Vertices
  100, 0, 4,                              !- X,Y,Z Vertex 1 {m}
  100, 0, 0,                              !- X,Y,Z Vertex 2 {m}
  100, 50, 0,                             !- X,Y,Z Vertex 3 {m}
  100, 50, 4;                             !- X,Y,Z Vertex 4 {m}

OS:Surface,
  {3945a0fb-72e4-46e9-9545-9b671440556f}, !- Handle
  Surface 5,                              !- Name
  Wall,                                   !- Surface Type
  ,                                       !- Construction Name
  {6efb8af1-f105-4167-9383-23e0ffc604c9}, !- Space Name
  Outdoors,                               !- Outside Boundary Condition
  ,                                       !- Outside Boundary Condition Object
  SunExposed,                             !- Sun Exposure
  WindExposed,                            !- Wind Exposure
  ,                                       !- View Factor to Ground
  ,                                       !- Number of Vertices
  0, 0, 4,                                !- X,Y,Z Vertex 1 {m}
  0, 0, 0,                                !- X,Y,Z Vertex 2 {m}
  100, 0, 0,                              !- X,Y,Z Vertex 3 {m}
  100, 0, 4;                              !- X,Y,Z Vertex 4 {m}

OS:Surface,
  {a8dff738-47b8-49ff-9bdb-4c4d03f8fafd}, !- Handle
  Surface 6,                              !- Name
  RoofCeiling,                            !- Surface Type
  ,                                       !- Construction Name
  {6efb8af1-f105-4167-9383-23e0ffc604c9}, !- Space Name
  Outdoors,                               !- Outside Boundary Condition
  ,                                       !- Outside Boundary Condition Object
  SunExposed,                             !- Sun Exposure
  WindExposed,                            !- Wind Exposure
  ,                                       !- View Factor to Ground
  ,                                       !- Number of Vertices
  100, 0, 4,                              !- X,Y,Z Vertex 1 {m}
  100, 50, 4,                             !- X,Y,Z Vertex 2 {m}
  0, 50, 4,                               !- X,Y,Z Vertex 3 {m}
  0, 0, 4;                                !- X,Y,Z Vertex 4 {m}

OS:ThermalZone,
  {12efbeee-736a-46fb-b958-e43422ec900e}, !- Handle
  Story 1 Core Thermal Zone,              !- Name
  ,                                       !- Multiplier
  ,                                       !- Ceiling Height {m}
  ,                                       !- Volume {m3}
  ,                                       !- Floor Area {m2}
  ,                                       !- Zone Inside Convection Algorithm
  ,                                       !- Zone Outside Convection Algorithm
  ,                                       !- Zone Conditioning Equipment List Name
  {6ddedec2-9448-4b74-893a-02c335c3d93c}, !- Zone Air Inlet Port List
  {7d731750-41ba-4f9c-9b0b-8dbe62adf170}, !- Zone Air Exhaust Port List
  {874b3211-5a6a-4f51-a595-1eb69151eed6}, !- Zone Air Node Name
  {5c324303-9465-4494-a9ff-bf47b8304c72}, !- Zone Return Air Port List
  ,                                       !- Primary Daylighting Control Name
  ,                                       !- Fraction of Zone Controlled by Primary Daylighting Control
  ,                                       !- Secondary Daylighting Control Name
  ,                                       !- Fraction of Zone Controlled by Secondary Daylighting Control
  ,                                       !- Illuminance Map Name
  ,                                       !- Group Rendering Name
  {122c39a3-bcbb-4ad5-89a5-8888ed5d5634}, !- Thermostat Name
  No;                                     !- Use Ideal Air Loads

OS:Node,
  {8778a366-d680-4ece-aaeb-edae0ce90e66}, !- Handle
  Node 1,                                 !- Name
  {874b3211-5a6a-4f51-a595-1eb69151eed6}, !- Inlet Port
  ;                                       !- Outlet Port

OS:Connection,
  {874b3211-5a6a-4f51-a595-1eb69151eed6}, !- Handle
  {dd77353b-6256-4d9a-9d7a-48d376d4337f}, !- Name
  {12efbeee-736a-46fb-b958-e43422ec900e}, !- Source Object
  11,                                     !- Outlet Port
  {8778a366-d680-4ece-aaeb-edae0ce90e66}, !- Target Object
  2;                                      !- Inlet Port

OS:PortList,
  {6ddedec2-9448-4b74-893a-02c335c3d93c}, !- Handle
  {be0384ca-31cd-430a-b449-e2082c62e486}, !- Name
  {12efbeee-736a-46fb-b958-e43422ec900e}, !- HVAC Component
  {c3d98dc1-c17a-4196-b277-4bf508c66b47}; !- Port 1

OS:PortList,
  {7d731750-41ba-4f9c-9b0b-8dbe62adf170}, !- Handle
  {e628bfaa-baf9-4f08-b030-5bada245a53e}, !- Name
  {12efbeee-736a-46fb-b958-e43422ec900e}; !- HVAC Component

OS:PortList,
  {5c324303-9465-4494-a9ff-bf47b8304c72}, !- Handle
  {d728ef9c-c6b7-4c89-a579-f3bcc5f3b736}, !- Name
  {12efbeee-736a-46fb-b958-e43422ec900e}, !- HVAC Component
  {d66f654b-3afc-490e-9a88-2ac9bbdb3420}; !- Port 1

OS:Sizing:Zone,
  {309e5339-5df7-4869-817d-d1d7c7daf747}, !- Handle
  {12efbeee-736a-46fb-b958-e43422ec900e}, !- Zone or ZoneList Name
  SupplyAirTemperature,                   !- Zone Cooling Design Supply Air Temperature Input Method
  14,                                     !- Zone Cooling Design Supply Air Temperature {C}
  11.11,                                  !- Zone Cooling Design Supply Air Temperature Difference {deltaC}
  SupplyAirTemperature,                   !- Zone Heating Design Supply Air Temperature Input Method
  40,                                     !- Zone Heating Design Supply Air Temperature {C}
  11.11,                                  !- Zone Heating Design Supply Air Temperature Difference {deltaC}
  0.0085,                                 !- Zone Cooling Design Supply Air Humidity Ratio {kg-H2O/kg-air}
  0.008,                                  !- Zone Heating Design Supply Air Humidity Ratio {kg-H2O/kg-air}
  ,                                       !- Zone Heating Sizing Factor
  ,                                       !- Zone Cooling Sizing Factor
  DesignDay,                              !- Cooling Design Air Flow Method
  ,                                       !- Cooling Design Air Flow Rate {m3/s}
  ,                                       !- Cooling Minimum Air Flow per Zone Floor Area {m3/s-m2}
  ,                                       !- Cooling Minimum Air Flow {m3/s}
  ,                                       !- Cooling Minimum Air Flow Fraction
  DesignDay,                              !- Heating Design Air Flow Method
  ,                                       !- Heating Design Air Flow Rate {m3/s}
  ,                                       !- Heating Maximum Air Flow per Zone Floor Area {m3/s-m2}
  ,                                       !- Heating Maximum Air Flow {m3/s}
  ,                                       !- Heating Maximum Air Flow Fraction
  No,                                     !- Account for Dedicated Outdoor Air System
  NeutralSupplyAir,                       !- Dedicated Outdoor Air System Control Strategy
  autosize,                               !- Dedicated Outdoor Air Low Setpoint Temperature for Design {C}
  autosize;                               !- Dedicated Outdoor Air High Setpoint Temperature for Design {C}

OS:ZoneHVAC:EquipmentList,
  {492d4cdb-31b8-4d1e-a52b-e50590b7a8a2}, !- Handle
  Zone HVAC Equipment List 1,             !- Name
  {12efbeee-736a-46fb-b958-e43422ec900e}, !- Thermal Zone
  ,                                       !- Load Distribution Scheme
  {2a73f322-6108-4054-9747-2f1e6919a68a}, !- Zone Equipment 1
  1,                                      !- Zone Equipment Cooling Sequence 1
  1,                                      !- Zone Equipment Heating or No-Load Sequence 1
  ,                                       !- Zone Equipment Sequential Cooling Fraction Schedule Name 1
  ;                                       !- Zone Equipment Sequential Heating Fraction Schedule Name 1

OS:SubSurface,
  {f5acafb9-fb44-4b39-85d4-86afdf2c3a13}, !- Handle
  Sub Surface 1,                          !- Name
  FixedWindow,                            !- Sub Surface Type
  ,                                       !- Construction Name
  {3945a0fb-72e4-46e9-9545-9b671440556f}, !- Surface Name
  ,                                       !- Outside Boundary Condition Object
  ,                                       !- View Factor to Ground
  ,                                       !- Frame and Divider Name
  ,                                       !- Multiplier
  ,                                       !- Number of Vertices
  0.0254, 0, 2.60081321311226,            !- X,Y,Z Vertex 1 {m}
  0.0254, 0, 1,                           !- X,Y,Z Vertex 2 {m}
  99.9746, 0, 1,                          !- X,Y,Z Vertex 3 {m}
  99.9746, 0, 2.60081321311226;           !- X,Y,Z Vertex 4 {m}

OS:SubSurface,
  {1d9be8b4-95d7-40f8-ac09-f4d22d8faa5d}, !- Handle
  Sub Surface 2,                          !- Name
  FixedWindow,                            !- Sub Surface Type
  ,                                       !- Construction Name
  {d68dd8fa-dd5d-44bd-b14c-f02466d9ec25}, !- Surface Name
  ,                                       !- Outside Boundary Condition Object
  ,                                       !- View Factor to Ground
  ,                                       !- Frame and Divider Name
  ,                                       !- Multiplier
  ,                                       !- Number of Vertices
  100, 0.0254, 2.60162725328934,          !- X,Y,Z Vertex 1 {m}
  100, 0.0254, 1,                         !- X,Y,Z Vertex 2 {m}
  100, 49.9746, 1,                        !- X,Y,Z Vertex 3 {m}
  100, 49.9746, 2.60162725328934;         !- X,Y,Z Vertex 4 {m}

OS:SubSurface,
  {e2e47887-6609-42e1-b6bc-66d1f1d6ec22}, !- Handle
  Sub Surface 3,                          !- Name
  FixedWindow,                            !- Sub Surface Type
  ,                                       !- Construction Name
  {81ce909a-65d7-4f17-8f45-20dc323e95cc}, !- Surface Name
  ,                                       !- Outside Boundary Condition Object
  ,                                       !- View Factor to Ground
  ,                                       !- Frame and Divider Name
  ,                                       !- Multiplier
  ,                                       !- Number of Vertices
  99.9746, 50, 2.60081321311226,          !- X,Y,Z Vertex 1 {m}
  99.9746, 50, 1,                         !- X,Y,Z Vertex 2 {m}
  0.0253999999999905, 50, 1,              !- X,Y,Z Vertex 3 {m}
  0.0253999999999905, 50, 2.60081321311226; !- X,Y,Z Vertex 4 {m}

OS:SubSurface,
  {30abe097-ec7e-4aa0-9381-b1383a446ef0}, !- Handle
  Sub Surface 4,                          !- Name
  FixedWindow,                            !- Sub Surface Type
  ,                                       !- Construction Name
  {0dec7e6b-3301-4067-b4ec-ca2f72ff5860}, !- Surface Name
  ,                                       !- Outside Boundary Condition Object
  ,                                       !- View Factor to Ground
  ,                                       !- Frame and Divider Name
  ,                                       !- Multiplier
  ,                                       !- Number of Vertices
  0, 49.9746, 2.60162725328934,           !- X,Y,Z Vertex 1 {m}
  0, 49.9746, 1,                          !- X,Y,Z Vertex 2 {m}
  0, 0.0254000000000048, 1,               !- X,Y,Z Vertex 3 {m}
  0, 0.0254000000000048, 2.60162725328934; !- X,Y,Z Vertex 4 {m}

OS:Schedule:Ruleset,
  {eb6fc21f-7288-4db5-b719-0d36e0d2aa01}, !- Handle
  Cooling Sch,                            !- Name
  {83beb5d7-3d8d-4adb-b7c9-90564ed30c70}, !- Schedule Type Limits Name
  {e1112ca4-25e0-4256-8169-506d9a6c7c32}; !- Default Day Schedule Name

OS:Schedule:Day,
  {e1112ca4-25e0-4256-8169-506d9a6c7c32}, !- Handle
  Cooling Sch Default,                    !- Name
  {83beb5d7-3d8d-4adb-b7c9-90564ed30c70}, !- Schedule Type Limits Name
  ,                                       !- Interpolate to Timestep
  24,                                     !- Hour 1
  0,                                      !- Minute 1
  26;                                     !- Value Until Time 1

OS:Schedule:Ruleset,
  {848fc1f6-c6df-46d3-a166-13f8828424e6}, !- Handle
  Heating Sch,                            !- Name
  {83beb5d7-3d8d-4adb-b7c9-90564ed30c70}, !- Schedule Type Limits Name
  {f84f3cfd-b71e-4840-92bd-31ca3a712af2}; !- Default Day Schedule Name

OS:Schedule:Day,
  {f84f3cfd-b71e-4840-92bd-31ca3a712af2}, !- Handle
  Heating Sch Default,                    !- Name
  {83beb5d7-3d8d-4adb-b7c9-90564ed30c70}, !- Schedule Type Limits Name
  ,                                       !- Interpolate to Timestep
  24,                                     !- Hour 1
  0,                                      !- Minute 1
  19;                                     !- Value Until Time 1

OS:ThermostatSetpoint:DualSetpoint,
  {122c39a3-bcbb-4ad5-89a5-8888ed5d5634}, !- Handle
  Thermostat Setpoint Dual Setpoint 1,    !- Name
  {848fc1f6-c6df-46d3-a166-13f8828424e6}, !- Heating Setpoint Temperature Schedule Name
  {eb6fc21f-7288-4db5-b719-0d36e0d2aa01}; !- Cooling Setpoint Temperature Schedule Name

OS:ScheduleTypeLimits,
  {83beb5d7-3d8d-4adb-b7c9-90564ed30c70}, !- Handle
  Temperature,                            !- Name
  ,                                       !- Lower Limit Value
  ,                                       !- Upper Limit Value
  Continuous,                             !- Numeric Type
  Temperature;                            !- Unit Type

OS:DefaultConstructionSet,
  {13bd66f9-4b16-4774-a22b-17c097c95bd4}, ! Handle
  ASHRAE_189.1-2009_ClimateZone 4-5 (mdoff)_ConstSet, ! Name
  {b9c4a881-909c-4ffe-9421-113c2053a3f8}, ! Default Exterior Surface Constructions Name
  {ea9d3203-c175-4849-a1a6-f78c72a50f2c}, ! Default Interior Surface Constructions Name
  {69d977c9-9737-4a34-ab3f-e5af672b7edf}, ! Default Ground Contact Surface Constructions Name
  {129b1a3e-3801-4d5a-a0ed-19435de6bdc6}, ! Default Exterior SubSurface Constructions Name
  {a7e86a8f-f634-4b86-8931-b938b85660a7}, ! Default Interior SubSurface Constructions Name
  {6d83c416-62ef-4245-9965-f948249e822c}, ! Interior Partition Construction Name
  ,                                       ! Space Shading Construction Name
  ,                                       ! Building Shading Construction Name
  ,                                       ! Site Shading Construction Name
  ;                                       !- Adiabatic Surface Construction Name

OS:DefaultSurfaceConstructions,
  {b9c4a881-909c-4ffe-9421-113c2053a3f8}, ! Handle
  ASHRAE_189.1-2009_ClimateZone 4-5 (mdoff)_Exterior_DefSurfCons, ! Name
  {1464b69c-2d0d-4899-a6ee-d8a913a61673}, ! Floor Construction Name
  {8d281c06-5949-4d23-af43-c8a2b8e44ca4}, ! Wall Construction Name
  {c5ab22f0-c04b-4ee9-9f46-f3303d118e35}; ! Roof Ceiling Construction Name

OS:DefaultSurfaceConstructions,
  {ea9d3203-c175-4849-a1a6-f78c72a50f2c}, ! Handle
  000_Interior_DefSurfCons,               ! Name
  {4db94095-c145-4ad8-9230-f6ce38c9ab2a}, ! Floor Construction Name
  {1d69854b-3c0a-4684-8d81-46d38083ab08}, ! Wall Construction Name
  {4613e8de-a1d6-4df7-a79a-8f5bb3b27c29}; ! Roof Ceiling Construction Name

OS:DefaultSurfaceConstructions,
  {69d977c9-9737-4a34-ab3f-e5af672b7edf}, ! Handle
  000_Ground_DefSurfCons,                 ! Name
  {1464b69c-2d0d-4899-a6ee-d8a913a61673}, ! Floor Construction Name
  {1464b69c-2d0d-4899-a6ee-d8a913a61673}, ! Wall Construction Name
  {1464b69c-2d0d-4899-a6ee-d8a913a61673}; ! Roof Ceiling Construction Name

OS:DefaultSubSurfaceConstructions,
  {129b1a3e-3801-4d5a-a0ed-19435de6bdc6}, ! Handle
  ASHRAE_189.1-2009_ClimateZone 4-5 (mdoff)_Exterior_DefSubCons, ! Name
  {f2b62de5-d8dc-4d98-840e-7248c164ba15}, ! Fixed Window Construction Name
  {f2b62de5-d8dc-4d98-840e-7248c164ba15}, ! Operable Window Construction Name
  {a5543d05-2082-4c45-bc4d-4a8713dd12d3}, ! Door Construction Name
  {f5f46404-47c3-465b-a8fb-08071f242d91}, ! Glass Door Construction Name
  ,                                       ! Overhead Door Construction Name
  {f5f46404-47c3-465b-a8fb-08071f242d91}, ! Skylight Construction Name
  {920576ad-a90d-40f1-9260-f643f0350736}, ! Tubular Daylight Dome Construction Name
  {920576ad-a90d-40f1-9260-f643f0350736}; ! Tubular Daylight Diffuser Construction Name

OS:DefaultSubSurfaceConstructions,
  {a7e86a8f-f634-4b86-8931-b938b85660a7}, ! Handle
  000_Interior_DefSubCons,                ! Name
  {920576ad-a90d-40f1-9260-f643f0350736}, ! Fixed Window Construction Name
  {920576ad-a90d-40f1-9260-f643f0350736}, ! Operable Window Construction Name
  {a4090ac2-d519-463a-9c9f-fdea65b564e7}, ! Door Construction Name
  {f5f46404-47c3-465b-a8fb-08071f242d91}, ! Glass Door Construction Name
  ,                                       ! Overhead Door Construction Name
  {f5f46404-47c3-465b-a8fb-08071f242d91}, ! Skylight Construction Name
  {920576ad-a90d-40f1-9260-f643f0350736}, ! Tubular Daylight Dome Construction Name
  {920576ad-a90d-40f1-9260-f643f0350736}; ! Tubular Daylight Diffuser Construction Name

OS:Construction,
  {6d83c416-62ef-4245-9965-f948249e822c}, ! Handle
  000_Interior Partition,                 ! Name
  ,                                       ! Surface Rendering Name
  {adcdb591-d581-4d1c-b34c-ce2c8f2f0e3e}; ! Layer 1

OS:Construction,
  {1464b69c-2d0d-4899-a6ee-d8a913a61673}, ! Handle
  000_ExtSlabCarpet_4in_ClimateZone 1-8,  ! Name
  ,                                       ! Surface Rendering Name
  {54666238-144d-4132-8df7-da3eabed7567}, ! Layer 1
  {3f7fa1f2-b6e1-4904-821d-46dd8bb32793}; ! Layer 2

OS:Construction,
  {8d281c06-5949-4d23-af43-c8a2b8e44ca4}, ! Handle
  ASHRAE_189.1-2009_ExtWall_SteelFrame_ClimateZone 4-8, ! Name
  ,                                       ! Surface Rendering Name
  {f26c43d7-7d80-4d39-8322-24e6a9b2e225}, ! Layer 1
  {5a0e4dad-03bb-4bd8-9f6b-4ccfc8c3038a}, ! Layer 2
  {4ef3a300-06df-4662-803b-67c56c8d9ea5}; ! Layer 3

OS:Construction,
  {c5ab22f0-c04b-4ee9-9f46-f3303d118e35}, ! Handle
  ASHRAE_189.1-2009_ExtRoof_IEAD_ClimateZone 2-5, ! Name
  ,                                       ! Surface Rendering Name
  {17992fab-bc45-43e5-8dcc-9673f5ff99c1}, ! Layer 1
  {5572fb37-dae9-4164-9445-429f5df557aa}, ! Layer 2
  {1ee79ad2-7b9d-4e26-8b55-0d2d1c91113a}; ! Layer 3

OS:Construction,
  {4db94095-c145-4ad8-9230-f6ce38c9ab2a}, ! Handle
  000_Interior Floor,                     ! Name
  ,                                       ! Surface Rendering Name
  {d305b2c8-b9f2-4bed-a482-2c8bffe2b99a}, ! Layer 1
  {896ecb11-a4c6-4c93-8ea7-dcbc09bd0e03}, ! Layer 2
  {eb37fb40-08a7-4c16-a2d0-d3bbce4c1892}; ! Layer 3

OS:Construction,
  {1d69854b-3c0a-4684-8d81-46d38083ab08}, ! Handle
  000_Interior Wall,                      ! Name
  ,                                       ! Surface Rendering Name
  {be38d773-279c-47cf-82f0-ae9b87b7af83}, ! Layer 1
  {d800363e-92c6-4de3-ab44-cd1a01e19c17}, ! Layer 2
  {be38d773-279c-47cf-82f0-ae9b87b7af83}; ! Layer 3

OS:Construction,
  {4613e8de-a1d6-4df7-a79a-8f5bb3b27c29}, ! Handle
  000_Interior Ceiling,                   ! Name
  ,                                       ! Surface Rendering Name
  {eb37fb40-08a7-4c16-a2d0-d3bbce4c1892}, ! Layer 1
  {896ecb11-a4c6-4c93-8ea7-dcbc09bd0e03}, ! Layer 2
  {d305b2c8-b9f2-4bed-a482-2c8bffe2b99a}; ! Layer 3

OS:Construction,
  {f2b62de5-d8dc-4d98-840e-7248c164ba15}, ! Handle
  ASHRAE_189.1-2009_ExtWindow_ClimateZone 4-5, ! Name
  ,                                       ! Surface Rendering Name
  {11b8b72d-8be6-442f-865c-5cfe3bd7861a}; ! Layer 1

OS:Construction,
  {a5543d05-2082-4c45-bc4d-4a8713dd12d3}, ! Handle
  000_Exterior Door,                      ! Name
  ,                                       ! Surface Rendering Name
  {86fa9a89-6b41-45b3-aad3-b60873b521fa}, ! Layer 1
  {d6c5e34c-3fa8-4daf-82ee-0182dd624cba}; ! Layer 2

OS:Construction,
  {f5f46404-47c3-465b-a8fb-08071f242d91}, ! Handle
  000_Exterior Window,                    ! Name
  ,                                       ! Surface Rendering Name
  {fbf84d90-0f1a-442d-a9d7-911fb73628c5}, ! Layer 1
  {0ff8479a-9081-407a-abbb-b19232e06e14}, ! Layer 2
  {fbf84d90-0f1a-442d-a9d7-911fb73628c5}; ! Layer 3

OS:Construction,
  {920576ad-a90d-40f1-9260-f643f0350736}, ! Handle
  000_Interior Window,                    ! Name
  ,                                       ! Surface Rendering Name
  {fbf84d90-0f1a-442d-a9d7-911fb73628c5}; ! Layer 1

OS:Construction,
  {a4090ac2-d519-463a-9c9f-fdea65b564e7}, ! Handle
  000_Interior Door,                      ! Name
  ,                                       ! Surface Rendering Name
  {adcdb591-d581-4d1c-b34c-ce2c8f2f0e3e}; ! Layer 1

OS:Material,
  {adcdb591-d581-4d1c-b34c-ce2c8f2f0e3e}, !- Handle
  000_G05 25mm wood,                      !- Name
  MediumSmooth,                           !- Roughness
  0.025399999999999999,                   !- Thickness {m}
  0.14999999999999999,                    !- Conductivity {W/m-K}
  608,                                    !- Density {kg/m3}
  1630;                                   !- Specific Heat {J/kg-K}

OS:Material,
  {54666238-144d-4132-8df7-da3eabed7567}, !- Handle
  MAT-CC05 4 HW CONCRETE,                 !- Name
  Rough,                                  !- Roughness
  0.1016,                                 !- Thickness {m}
  1.3109999999999999,                     !- Conductivity {W/m-K}
  2240,                                   !- Density {kg/m3}
  836.8,                                  !- Specific Heat {J/kg-K}
  0.90000000000000002,                    !- Thermal Absorptance
  0.69999999999999996,                    !- Solar Absorptance
  0.69999999999999996;                    !- Visible Absorptance

OS:Material:NoMass,
  {3f7fa1f2-b6e1-4904-821d-46dd8bb32793}, ! Handle
  CP02 CARPET PAD,                        ! Name
  VeryRough,                              ! Roughness
  0.2165,                                 ! Thermal Resistance
  0.90000000000000002,                    ! Thermal Absorptance
  0.69999999999999996,                    ! Solar Absorptance
  0.80000000000000004;                    ! Visible Absorptance

OS:Material:NoMass,
  {f26c43d7-7d80-4d39-8322-24e6a9b2e225}, ! Handle
  MAT-SHEATH,                             ! Name
  Rough,                                  ! Roughness
  0.36259999999999998,                    ! Thermal Resistance
  0.90000000000000002,                    ! Thermal Absorptance
  0.69999999999999996,                    ! Solar Absorptance
  0.69999999999999996;                    ! Visible Absorptance

OS:Material,
  {5a0e4dad-03bb-4bd8-9f6b-4ccfc8c3038a}, !- Handle
  Wall Insulation [39],                   !- Name
  MediumRough,                            !- Roughness
  0.11840000000000001,                    !- Thickness {m}
  0.044999999999999998,                   !- Conductivity {W/m-K}
  265,                                    !- Density {kg/m3}
  836.8,                                  !- Specific Heat {J/kg-K}
  0.90000000000000002,                    !- Thermal Absorptance
  0.69999999999999996,                    !- Solar Absorptance
  0.69999999999999996;                    !- Visible Absorptance

OS:Material,
  {4ef3a300-06df-4662-803b-67c56c8d9ea5}, !- Handle
  1/2IN Gypsum,                           !- Name
  Smooth,                                 !- Roughness
  0.012699999999999999,                   !- Thickness {m}
  0.16,                                   !- Conductivity {W/m-K}
  784.89999999999998,                     !- Density {kg/m3}
  830,                                    !- Specific Heat {J/kg-K}
  0.90000000000000002,                    !- Thermal Absorptance
  0.92000000000000004,                    !- Solar Absorptance
  0.92000000000000004;                    !- Visible Absorptance

OS:Material,
  {17992fab-bc45-43e5-8dcc-9673f5ff99c1}, !- Handle
  Roof Membrane,                          !- Name
  VeryRough,                              !- Roughness
  0.0094999999999999998,                  !- Thickness {m}
  0.16,                                   !- Conductivity {W/m-K}
  1121.29,                                !- Density {kg/m3}
  1460,                                   !- Specific Heat {J/kg-K}
  0.90000000000000002,                    !- Thermal Absorptance
  0.69999999999999996,                    !- Solar Absorptance
  0.69999999999999996;                    !- Visible Absorptance

OS:Material,
  {5572fb37-dae9-4164-9445-429f5df557aa}, !- Handle
  Roof Insulation [21],                   !- Name
  MediumRough,                            !- Roughness
  0.21049999999999999,                    !- Thickness {m}
  0.049000000000000002,                   !- Conductivity {W/m-K}
  265,                                    !- Density {kg/m3}
  836.8,                                  !- Specific Heat {J/kg-K}
  0.90000000000000002,                    !- Thermal Absorptance
  0.69999999999999996,                    !- Solar Absorptance
  0.69999999999999996;                    !- Visible Absorptance

OS:Material,
  {1ee79ad2-7b9d-4e26-8b55-0d2d1c91113a}, !- Handle
  Metal Decking,                          !- Name