
OS:Version,
  {3c7ac4e3-d705-4baa-9d1a-72fa17794b21}, !- Handle
  2.9.0;                                  !- Version Identifier

OS:BuildingStory,
  {e121c7d2-d121-4c26-a83f-2626c74a4d21}, !- Handle
  Story 1,                                !- Name
  0,                                      !- Nominal Z Coordinate {m}
  4,                                      !- Nominal Floor to Floor Height {m}
  ,                                       !- Default Construction Set Name
  ,                                       !- Default Schedule Set Name
  ;                                       !- Group Rendering Name

OS:Space,
  {975927a0-4db6-4a83-8c62-dba83a1cc870}, !- Handle
  Story 1 Core Space,                     !- Name
  ,                                       !- Space Type Name
  ,                                       !- Default Construction Set Name
  ,                                       !- Default Schedule Set Name
  -0,                                     !- Direction of Relative North {deg}
  0,                                      !- X Origin {m}
  0,                                      !- Y Origin {m}
  0,                                      !- Z Origin {m}
  {e121c7d2-d121-4c26-a83f-2626c74a4d21}, !- Building Story Name
  {33556349-781a-499d-becd-a868861b5e43}; !- Thermal Zone Name

OS:Surface,
  {a2d2b9eb-189d-4786-a3d8-cd8d4470326f}, !- Handle
  Surface 1,                              !- Name
  Floor,                                  !- Surface Type
  ,                                       !- Construction Name
  {975927a0-4db6-4a83-8c62-dba83a1cc870}, !- Space Name
  Ground,                                 !- Outside Boundary Condition
  ,                                       !- Outside Boundary Condition Object
  NoSun,                                  !- Sun Exposure
  NoWind,                                 !- Wind Exposure
  ,                                       !- View Factor to Ground
  ,                                       !- Number of Vertices
  0, 0, 0,                                !- X,Y,Z Vertex 1 {m}
  0, 50, 0,                               !- X,Y,Z Vertex 2 {m}
  100, 50, 0,                             !- X,Y,Z Vertex 3 {m}
  100, 0, 0;                              !- X,Y,Z Vertex 4 {m}

OS:Surface,
  {493eaf92-d881-4ca5-aeea-3ffa42bd4b23}, !- Handle
  Surface 2,                              !- Name
  Wall,                                   !- Surface Type
  ,                                       !- Construction Name
  {975927a0-4db6-4a83-8c62-dba83a1cc870}, !- Space Name
  Outdoors,                               !- Outside Boundary Condition
  ,                                       !- Outside Boundary Condition Object
  SunExposed,                             !- Sun Exposure
  WindExposed,                            !- Wind Exposure
  ,                                       !- View Factor to Ground
  ,                                       !- Number of Vertices
  0, 50, 4,                               !- X,Y,Z Vertex 1 {m}
  0, 50, 0,                               !- X,Y,Z Vertex 2 {m}
  0, 0, 0,                                !- X,Y,Z Vertex 3 {m}
  0, 0, 4;                                !- X,Y,Z Vertex 4 {m}

OS:Surface,
  {cbb5a2cd-dab0-4c8c-a6e9-1f728d21de0a}, !- Handle
  Surface 3,                              !- Name
  Wall,                                   !- Surface Type
  ,                                       !- Construction Name
  {975927a0-4db6-4a83-8c62-dba83a1cc870}, !- Space Name
  Outdoors,                               !- Outside Boundary Condition
  ,                                       !- Outside Boundary Condition Object
  SunExposed,                             !- Sun Exposure
  WindExposed,                            !- Wind Exposure
  ,                                       !- View Factor to Ground
  ,                                       !- Number of Vertices
  100, 50, 4,                             !- X,Y,Z Vertex 1 {m}
  100, 50, 0,                             !- X,Y,Z Vertex 2 {m}
  0, 50, 0,                               !- X,Y,Z Vertex 3 {m}
  0, 50, 4;                               !- X,Y,Z Vertex 4 {m}

OS:Surface,
  {94b2ed3c-f0bf-4366-9cc3-b4bf5a4c95e1}, !- Handle
  Surface 4,                              !- Name
  Wall,                                   !- Surface Type
  ,                                       !- Construction Name
  {975927a0-4db6-4a83-8c62-dba83a1cc870}, !- Space Name
  Outdoors,                               !- Outside Boundary Condition
  ,                                       !- Outside Boundary Condition Object
  SunExposed,                             !- Sun Exposure
  WindExposed,                            !- Wind Exposure
  ,                                       !- View Factor to Ground
  ,                                       !- Number of Vertices
  100, 0, 4,                              !- X,Y,Z Vertex 1 {m}
  100, 0, 0,                              !- X,Y,Z Vertex 2 {m}
  100, 50, 0,                             !- X,Y,Z Vertex 3 {m}
  100, 50, 4;                             !- X,Y,Z Vertex 4 {m}

OS:Surface,
  {19fd3811-bdef-44dc-ab14-9a9fc7b8a2d2}, !- Handle
  Surface 5,                              !- Name
  Wall,                                   !- Surface Type
  ,                                       !- Construction Name
  {975927a0-4db6-4a83-8c62-dba83a1cc870}, !- Space Name
  Outdoors,                               !- Outside Boundary Condition
  ,                                       !- Outside Boundary Condition Object
  SunExposed,                             !- Sun Exposure
  WindExposed,                            !- Wind Exposure
  ,                                       !- View Factor to Ground
  ,                                       !- Number of Vertices
  0, 0, 4,                                !- X,Y,Z Vertex 1 {m}
  0, 0, 0,                                !- X,Y,Z Vertex 2 {m}
  100, 0, 0,                              !- X,Y,Z Vertex 3 {m}
  100, 0, 4;                              !- X,Y,Z Vertex 4 {m}

OS:Surface,
  {fa6c3a74-c7e1-40be-826c-2f3ecea4a02a}, !- Handle
  Surface 6,                              !- Name
  RoofCeiling,                            !- Surface Type
  ,                                       !- Construction Name
  {975927a0-4db6-4a83-8c62-dba83a1cc870}, !- Space Name
  Surface,                                !- Outside Boundary Condition
  {68e9213e-301c-49f4-85af-b33991b0eca6}, !- Outside Boundary Condition Object
  NoSun,                                  !- Sun Exposure
  NoWind,                                 !- Wind Exposure
  ,                                       !- View Factor to Ground
  ,                                       !- Number of Vertices
  100, 0, 4,                              !- X,Y,Z Vertex 1 {m}
  100, 50, 4,                             !- X,Y,Z Vertex 2 {m}
  0, 50, 4,                               !- X,Y,Z Vertex 3 {m}
  0, 0, 4;                                !- X,Y,Z Vertex 4 {m}

OS:BuildingStory,
  {9afaa957-60be-47d0-94a4-64682f798f5a}, !- Handle
  Story 2,                                !- Name
  4,                                      !- Nominal Z Coordinate {m}
  4,                                      !- Nominal Floor to Floor Height {m}
  ,                                       !- Default Construction Set Name
  ,                                       !- Default Schedule Set Name
  ;                                       !- Group Rendering Name

OS:Space,
  {bdc76a14-ef04-4242-941c-82b998ca7aa2}, !- Handle
  Story 2 Core Space,                     !- Name
  ,                                       !- Space Type Name
  ,                                       !- Default Construction Set Name
  ,                                       !- Default Schedule Set Name
  -0,                                     !- Direction of Relative North {deg}
  0,                                      !- X Origin {m}
  0,                                      !- Y Origin {m}
  4,                                      !- Z Origin {m}
  {9afaa957-60be-47d0-94a4-64682f798f5a}, !- Building Story Name
  {3ea718d6-e4b1-42cc-bcf0-ee7bd5759674}; !- Thermal Zone Name

OS:Surface,
  {68e9213e-301c-49f4-85af-b33991b0eca6}, !- Handle
  Surface 7,                              !- Name
  Floor,                                  !- Surface Type
  ,                                       !- Construction Name
  {bdc76a14-ef04-4242-941c-82b998ca7aa2}, !- Space Name
  Surface,                                !- Outside Boundary Condition
  {fa6c3a74-c7e1-40be-826c-2f3ecea4a02a}, !- Outside Boundary Condition Object
  NoSun,                                  !- Sun Exposure
  NoWind,                                 !- Wind Exposure
  ,                                       !- View Factor to Ground
  ,                                       !- Number of Vertices
  0, 0, 0,                                !- X,Y,Z Vertex 1 {m}
  0, 50, 0,                               !- X,Y,Z Vertex 2 {m}
  100, 50, 0,                             !- X,Y,Z Vertex 3 {m}
  100, 0, 0;                              !- X,Y,Z Vertex 4 {m}

OS:Surface,
  {955d39b9-9b47-4395-8ca8-436892c67645}, !- Handle
  Surface 8,                              !- Name
  Wall,                                   !- Surface Type
  ,                                       !- Construction Name
  {bdc76a14-ef04-4242-941c-82b998ca7aa2}, !- Space Name
  Outdoors,                               !- Outside Boundary Condition
  ,                                       !- Outside Boundary Condition Object
  SunExposed,                             !- Sun Exposure
  WindExposed,                            !- Wind Exposure
  ,                                       !- View Factor to Ground
  ,                                       !- Number of Vertices
  0, 50, 4,                               !- X,Y,Z Vertex 1 {m}
  0, 50, 0,                               !- X,Y,Z Vertex 2 {m}
  0, 0, 0,                                !- X,Y,Z Vertex 3 {m}
  0, 0, 4;                                !- X,Y,Z Vertex 4 {m}

OS:Surface,
  {6ee91b2d-1098-4297-aadc-9a4a52fbc826}, !- Handle
  Surface 9,                              !- Name
  Wall,                                   !- Surface Type
  ,                                       !- Construction Name
  {bdc76a14-ef04-4242-941c-82b998ca7aa2}, !- Space Name
  Outdoors,                               !- Outside Boundary Condition
  ,                                       !- Outside Boundary Condition Object
  SunExposed,                             !- Sun Exposure
  WindExposed,                            !- Wind Exposure
  ,                                       !- View Factor to Ground
  ,                                       !- Number of Vertices
  100, 50, 4,                             !- X,Y,Z Vertex 1 {m}
  100, 50, 0,                             !- X,Y,Z Vertex 2 {m}
  0, 50, 0,                               !- X,Y,Z Vertex 3 {m}
  0, 50, 4;                               !- X,Y,Z Vertex 4 {m}

OS:Surface,
  {023f2db4-de0d-41cb-bdf3-c8aa0d192a87}, !- Handle
  Surface 10,                             !- Name
  Wall,                                   !- Surface Type
  ,                                       !- Construction Name
  {bdc76a14-ef04-4242-941c-82b998ca7aa2}, !- Space Name
  Outdoors,                               !- Outside Boundary Condition
  ,                                       !- Outside Boundary Condition Object
  SunExposed,                             !- Sun Exposure
  WindExposed,                            !- Wind Exposure
  ,                                       !- View Factor to Ground
  ,                                       !- Number of Vertices
  100, 0, 4,                              !- X,Y,Z Vertex 1 {m}
  100, 0, 0,                              !- X,Y,Z Vertex 2 {m}
  100, 50, 0,                             !- X,Y,Z Vertex 3 {m}
  100, 50, 4;                             !- X,Y,Z Vertex 4 {m}

OS:Surface,
  {eb289d9c-a484-40f2-b3d0-3b69f2bf3dec}, !- Handle
  Surface 11,                             !- Name
  Wall,                                   !- Surface Type
  ,                                       !- Construction Name
  {bdc76a14-ef04-4242-941c-82b998ca7aa2}, !- Space Name
  Outdoors,                               !- Outside Boundary Condition
  ,                                       !- Outside Boundary Condition Object
  SunExposed,                             !- Sun Exposure
  WindExposed,                            !- Wind Exposure
  ,                                       !- View Factor to Ground
  ,                                       !- Number of Vertices
  0, 0, 4,                                !- X,Y,Z Vertex 1 {m}
  0, 0, 0,                                !- X,Y,Z Vertex 2 {m}
  100, 0, 0,                              !- X,Y,Z Vertex 3 {m}
  100, 0, 4;                              !- X,Y,Z Vertex 4 {m}

OS:Surface,
  {69cd4283-9e64-49cc-b24e-2b0b5cd6740b}, !- Handle
  Surface 12,                             !- Name
  RoofCeiling,                            !- Surface Type
  ,                                       !- Construction Name
  {bdc76a14-ef04-4242-941c-82b998ca7aa2}, !- Space Name
  Outdoors,                               !- Outside Boundary Condition
  ,                                       !- Outside Boundary Condition Object
  SunExposed,                             !- Sun Exposure
  WindExposed,                            !- Wind Exposure
  ,                                       !- View Factor to Ground
  ,                                       !- Number of Vertices
  100, 0, 4,                              !- X,Y,Z Vertex 1 {m}
  100, 50, 4,                             !- X,Y,Z Vertex 2 {m}
  0, 50, 4,                               !- X,Y,Z Vertex 3 {m}
  0, 0, 4;                                !- X,Y,Z Vertex 4 {m}

OS:ThermalZone,
  {33556349-781a-499d-becd-a868861b5e43}, !- Handle
  Story 1 Core Thermal Zone,              !- Name
  ,                                       !- Multiplier
  ,                                       !- Ceiling Height {m}
  ,                                       !- Volume {m3}
  ,                                       !- Floor Area {m2}
  ,                                       !- Zone Inside Convection Algorithm
  ,                                       !- Zone Outside Convection Algorithm
  ,                                       !- Zone Conditioning Equipment List Name
  {6e1712de-64ce-4186-9300-49fef6e81a2a}, !- Zone Air Inlet Port List
  {b5d72e29-1234-4de1-9a89-93e9e071e50a}, !- Zone Air Exhaust Port List
  {f96f1d40-aefa-48dc-b3d3-91dd86db1a44}, !- Zone Air Node Name
  {1d02f7b6-81d1-4633-a2be-1e97462b6f80}, !- Zone Return Air Port List
  ,                                       !- Primary Daylighting Control Name
  ,                                       !- Fraction of Zone Controlled by Primary Daylighting Control
  ,                                       !- Secondary Daylighting Control Name
  ,                                       !- Fraction of Zone Controlled by Secondary Daylighting Control
  ,                                       !- Illuminance Map Name
  ,                                       !- Group Rendering Name
  {98854ec2-8089-42e5-9020-a371662ad33f}, !- Thermostat Name
  No;                                     !- Use Ideal Air Loads

OS:Node,
  {cbe53508-f7bb-4d77-a488-75f5745f0c0e}, !- Handle
  Node 1,                                 !- Name
  {f96f1d40-aefa-48dc-b3d3-91dd86db1a44}, !- Inlet Port
  ;                                       !- Outlet Port

OS:Connection,
  {f96f1d40-aefa-48dc-b3d3-91dd86db1a44}, !- Handle
  {e642abdb-cba2-4605-89cb-4cce3ba080b8}, !- Name
  {33556349-781a-499d-becd-a868861b5e43}, !- Source Object
  11,                                     !- Outlet Port
  {cbe53508-f7bb-4d77-a488-75f5745f0c0e}, !- Target Object
  2;                                      !- Inlet Port

OS:PortList,
  {6e1712de-64ce-4186-9300-49fef6e81a2a}, !- Handle
  {4b1e011e-1abf-46d0-acfd-491a79569dfe}, !- Name
  {33556349-781a-499d-becd-a868861b5e43}, !- HVAC Component
  {3919a7b0-21d4-462d-b244-ff8f0e34c294}; !- Port 1

OS:PortList,
  {b5d72e29-1234-4de1-9a89-93e9e071e50a}, !- Handle
  {6d9213e8-62b6-4814-b170-9a822c917f69}, !- Name
  {33556349-781a-499d-becd-a868861b5e43}; !- HVAC Component

OS:PortList,
  {1d02f7b6-81d1-4633-a2be-1e97462b6f80}, !- Handle
  {a354a72a-fc68-4980-982a-25d984a7fe9c}, !- Name
  {33556349-781a-499d-becd-a868861b5e43}, !- HVAC Component
  {d0b11a56-2fe8-46f8-bfc8-8578cf05bb78}; !- Port 1

OS:Sizing:Zone,
  {a7233159-3a09-41b6-91db-d3d4a049beb0}, !- Handle
  {33556349-781a-499d-becd-a868861b5e43}, !- Zone or ZoneList Name
  SupplyAirTemperature,                   !- Zone Cooling Design Supply Air Temperature Input Method
  14,                                     !- Zone Cooling Design Supply Air Temperature {C}
  11.11,                                  !- Zone Cooling Design Supply Air Temperature Difference {deltaC}
  SupplyAirTemperature,                   !- Zone Heating Design Supply Air Temperature Input Method
  40,                                     !- Zone Heating Design Supply Air Temperature {C}
  11.11,                                  !- Zone Heating Design Supply Air Temperature Difference {deltaC}
  0.0085,                                 !- Zone Cooling Design Supply Air Humidity Ratio {kg-H2O/kg-air}
  0.008,                                  !- Zone Heating Design Supply Air Humidity Ratio {kg-H2O/kg-air}
  ,                                       !- Zone Heating Sizing Factor
  ,                                       !- Zone Cooling Sizing Factor
  DesignDay,                              !- Cooling Design Air Flow Method
  ,                                       !- Cooling Design Air Flow Rate {m3/s}
  ,                                       !- Cooling Minimum Air Flow per Zone Floor Area {m3/s-m2}
  ,                                       !- Cooling Minimum Air Flow {m3/s}
  ,                                       !- Cooling Minimum Air Flow Fraction
  DesignDay,                              !- Heating Design Air Flow Method
  ,                                       !- Heating Design Air Flow Rate {m3/s}
  ,                                       !- Heating Maximum Air Flow per Zone Floor Area {m3/s-m2}
  ,                                       !- Heating Maximum Air Flow {m3/s}
  ,                                       !- Heating Maximum Air Flow Fraction
  ,                                       !- Design Zone Air Distribution Effectiveness in Cooling Mode
  ,                                       !- Design Zone Air Distribution Effectiveness in Heating Mode
  No,                                     !- Account for Dedicated Outdoor Air System
  NeutralSupplyAir,                       !- Dedicated Outdoor Air System Control Strategy
  autosize,                               !- Dedicated Outdoor Air Low Setpoint Temperature for Design {C}
  autosize;                               !- Dedicated Outdoor Air High Setpoint Temperature for Design {C}

OS:ZoneHVAC:EquipmentList,
  {b9f440bf-65b9-475a-8b35-2f0bc872aade}, !- Handle
  Zone HVAC Equipment List 1,             !- Name
  {33556349-781a-499d-becd-a868861b5e43}, !- Thermal Zone
  ,                                       !- Load Distribution Scheme
  {b505afe8-0673-4276-9eb5-a6192455d4f6}, !- Zone Equipment 1
  1,                                      !- Zone Equipment Cooling Sequence 1
  1,                                      !- Zone Equipment Heating or No-Load Sequence 1
  ,                                       !- Zone Equipment Sequential Cooling Fraction Schedule Name 1
  ;                                       !- Zone Equipment Sequential Heating Fraction Schedule Name 1

OS:ThermalZone,
  {3ea718d6-e4b1-42cc-bcf0-ee7bd5759674}, !- Handle
  Story 2 Core Thermal Zone,              !- Name
  ,                                       !- Multiplier
  ,                                       !- Ceiling Height {m}
  ,                                       !- Volume {m3}
  ,                                       !- Floor Area {m2}
  ,                                       !- Zone Inside Convection Algorithm
  ,                                       !- Zone Outside Convection Algorithm
  ,                                       !- Zone Conditioning Equipment List Name
  {46c883f9-3944-4428-88ea-1a2961e5ac03}, !- Zone Air Inlet Port List
  {4c9f1a37-77a1-4627-b157-e2d7d7bc0458}, !- Zone Air Exhaust Port List
  {d6036c1b-c0e3-4013-8e9c-f23f50fc7220}, !- Zone Air Node Name
  {6e02984d-e634-48d9-80cf-a58b852537bf}, !- Zone Return Air Port List
  ,                                       !- Primary Daylighting Control Name
  ,                                       !- Fraction of Zone Controlled by Primary Daylighting Control
  ,                                       !- Secondary Daylighting Control Name
  ,                                       !- Fraction of Zone Controlled by Secondary Daylighting Control
  ,                                       !- Illuminance Map Name
  ,                                       !- Group Rendering Name
  {1ba930f4-b331-460a-a124-1b38b301419b}, !- Thermostat Name
  No;                                     !- Use Ideal Air Loads

OS:Node,
  {71e12b1f-9b85-4050-ac18-5370ea77316f}, !- Handle
  Node 2,                                 !- Name
  {d6036c1b-c0e3-4013-8e9c-f23f50fc7220}, !- Inlet Port
  ;                                       !- Outlet Port

OS:Connection,
  {d6036c1b-c0e3-4013-8e9c-f23f50fc7220}, !- Handle
  {aa2450d7-3f72-4214-9722-6ff8d8084785}, !- Name
  {3ea718d6-e4b1-42cc-bcf0-ee7bd5759674}, !- Source Object
  11,                                     !- Outlet Port
  {71e12b1f-9b85-4050-ac18-5370ea77316f}, !- Target Object
  2;                                      !- Inlet Port

OS:PortList,
  {46c883f9-3944-4428-88ea-1a2961e5ac03}, !- Handle
  {a2a3beba-5b07-402f-842a-15618c40b229}, !- Name
  {3ea718d6-e4b1-42cc-bcf0-ee7bd5759674}, !- HVAC Component
  {ff724614-68f2-4bd6-99b5-e533ef116db1}; !- Port 1

OS:PortList,
  {4c9f1a37-77a1-4627-b157-e2d7d7bc0458}, !- Handle
  {64edda43-e367-4403-91b8-fd3c103fd485}, !- Name
  {3ea718d6-e4b1-42cc-bcf0-ee7bd5759674}; !- HVAC Component

OS:PortList,
  {6e02984d-e634-48d9-80cf-a58b852537bf}, !- Handle
  {8f2e07fe-2ab0-4c3e-b912-a5ca04206048}, !- Name
  {3ea718d6-e4b1-42cc-bcf0-ee7bd5759674}, !- HVAC Component
  {6ad8cc61-2dae-4389-84e0-6f35da651b85}; !- Port 1

OS:Sizing:Zone,
  {d9577a8b-0dd4-41c7-a69a-c47afd23cd18}, !- Handle
  {3ea718d6-e4b1-42cc-bcf0-ee7bd5759674}, !- Zone or ZoneList Name
  SupplyAirTemperature,                   !- Zone Cooling Design Supply Air Temperature Input Method
  14,                                     !- Zone Cooling Design Supply Air Temperature {C}
  11.11,                                  !- Zone Cooling Design Supply Air Temperature Difference {deltaC}
  SupplyAirTemperature,                   !- Zone Heating Design Supply Air Temperature Input Method
  40,                                     !- Zone Heating Design Supply Air Temperature {C}
  11.11,                                  !- Zone Heating Design Supply Air Temperature Difference {deltaC}
  0.0085,                                 !- Zone Cooling Design Supply Air Humidity Ratio {kg-H2O/kg-air}
  0.008,                                  !- Zone Heating Design Supply Air Humidity Ratio {kg-H2O/kg-air}
  ,                                       !- Zone Heating Sizing Factor
  ,                                       !- Zone Cooling Sizing Factor
  DesignDay,                              !- Cooling Design Air Flow Method
  ,                                       !- Cooling Design Air Flow Rate {m3/s}
  ,                                       !- Cooling Minimum Air Flow per Zone Floor Area {m3/s-m2}
  ,                                       !- Cooling Minimum Air Flow {m3/s}
  ,                                       !- Cooling Minimum Air Flow Fraction
  DesignDay,                              !- Heating Design Air Flow Method
  ,                                       !- Heating Design Air Flow Rate {m3/s}
  ,                                       !- Heating Maximum Air Flow per Zone Floor Area {m3/s-m2}
  ,                                       !- Heating Maximum Air Flow {m3/s}
  ,                                       !- Heating Maximum Air Flow Fraction
  ,                                       !- Design Zone Air Distribution Effectiveness in Cooling Mode
  ,                                       !- Design Zone Air Distribution Effectiveness in Heating Mode
  No,                                     !- Account for Dedicated Outdoor Air System
  NeutralSupplyAir,                       !- Dedicated Outdoor Air System Control Strategy
  autosize,                               !- Dedicated Outdoor Air Low Setpoint Temperature for Design {C}
  autosize;                               !- Dedicated Outdoor Air High Setpoint Temperature for Design {C}

OS:ZoneHVAC:EquipmentList,
  {04f93317-39b9-48c7-a68d-9df006f3b34d}, !- Handle
  Zone HVAC Equipment List 2,             !- Name
  {3ea718d6-e4b1-42cc-bcf0-ee7bd5759674}, !- Thermal Zone
  ,                                       !- Load Distribution Scheme
  {21b34447-16b7-4edd-afc3-e31f9997b54d}, !- Zone Equipment 1
  1,                                      !- Zone Equipment Cooling Sequence 1
  1,                                      !- Zone Equipment Heating or No-Load Sequence 1
  ,                                       !- Zone Equipment Sequential Cooling Fraction Schedule Name 1
  ;                                       !- Zone Equipment Sequential Heating Fraction Schedule Name 1

OS:SubSurface,
  {7498455e-4a8a-41c0-9a30-a0ccafeb8fe2}, !- Handle
  Sub Surface 1,                          !- Name
  FixedWindow,                            !- Sub Surface Type
  ,                                       !- Construction Name
  {eb289d9c-a484-40f2-b3d0-3b69f2bf3dec}, !- Surface Name
  ,                                       !- Outside Boundary Condition Object
  ,                                       !- View Factor to Ground
  ,                                       !- Shading Control Name
  ,                                       !- Frame and Divider Name
  ,                                       !- Multiplier
  ,                                       !- Number of Vertices
  0.0254, 0, 2.60081321311226,            !- X,Y,Z Vertex 1 {m}
  0.0254, 0, 1,                           !- X,Y,Z Vertex 2 {m}
  99.9746, 0, 1,                          !- X,Y,Z Vertex 3 {m}
  99.9746, 0, 2.60081321311226;           !- X,Y,Z Vertex 4 {m}

OS:SubSurface,
  {1e3baafa-f8d8-499e-b451-03f68f250492}, !- Handle
  Sub Surface 2,                          !- Name
  FixedWindow,                            !- Sub Surface Type
  ,                                       !- Construction Name
  {023f2db4-de0d-41cb-bdf3-c8aa0d192a87}, !- Surface Name
  ,                                       !- Outside Boundary Condition Object
  ,                                       !- View Factor to Ground
  ,                                       !- Shading Control Name
  ,                                       !- Frame and Divider Name
  ,                                       !- Multiplier
  ,                                       !- Number of Vertices
  100, 0.0254, 2.60162725328934,          !- X,Y,Z Vertex 1 {m}
  100, 0.0254, 1,                         !- X,Y,Z Vertex 2 {m}
  100, 49.9746, 1,                        !- X,Y,Z Vertex 3 {m}
  100, 49.9746, 2.60162725328934;         !- X,Y,Z Vertex 4 {m}

OS:SubSurface,
  {d3324a7f-7914-4b82-a2f0-d2220548f6b0}, !- Handle
  Sub Surface 3,                          !- Name
  FixedWindow,                            !- Sub Surface Type
  ,                                       !- Construction Name
  {6ee91b2d-1098-4297-aadc-9a4a52fbc826}, !- Surface Name
  ,                                       !- Outside Boundary Condition Object
  ,                                       !- View Factor to Ground
  ,                                       !- Shading Control Name
  ,                                       !- Frame and Divider Name
  ,                                       !- Multiplier
  ,                                       !- Number of Vertices
  99.9746, 50, 2.60081321311226,          !- X,Y,Z Vertex 1 {m}
  99.9746, 50, 1,                         !- X,Y,Z Vertex 2 {m}
  0.0253999999999905, 50, 1,              !- X,Y,Z Vertex 3 {m}
  0.0253999999999905, 50, 2.60081321311226; !- X,Y,Z Vertex 4 {m}

OS:SubSurface,
  {cb7b9171-0c36-43a1-b2af-02ad8bdec2a8}, !- Handle
  Sub Surface 4,                          !- Name
  FixedWindow,                            !- Sub Surface Type
  ,                                       !- Construction Name
  {955d39b9-9b47-4395-8ca8-436892c67645}, !- Surface Name
  ,                                       !- Outside Boundary Condition Object
  ,                                       !- View Factor to Ground
  ,                                       !- Shading Control Name
  ,                                       !- Frame and Divider Name
  ,                                       !- Multiplier
  ,                                       !- Number of Vertices
  0, 49.9746, 2.60162725328934,           !- X,Y,Z Vertex 1 {m}
  0, 49.9746, 1,                          !- X,Y,Z Vertex 2 {m}
  0, 0.0254000000000048, 1,               !- X,Y,Z Vertex 3 {m}
  0, 0.0254000000000048, 2.60162725328934; !- X,Y,Z Vertex 4 {m}

OS:SubSurface,
  {3f5e1442-6cbe-4e56-9920-3eab8fa9b821}, !- Handle
  Sub Surface 5,                          !- Name
  FixedWindow,                            !- Sub Surface Type
  ,                                       !- Construction Name
  {493eaf92-d881-4ca5-aeea-3ffa42bd4b23}, !- Surface Name
  ,                                       !- Outside Boundary Condition Object
  ,                                       !- View Factor to Ground