
OS:Version,
  {1a42dc24-d5dd-4d13-9a2c-f544418625a5}, !- Handle
  2.3.1;                                  !- Version Identifier

OS:BuildingStory,
  {1166ffbd-918e-40d7-9283-988252482c62}, !- Handle
  Story 1,                                !- Name
  0,                                      !- Nominal Z Coordinate {m}
  4,                                      !- Nominal Floor to Floor Height {m}
  ,                                       !- Default Construction Set Name
  ,                                       !- Default Schedule Set Name
  ;                                       !- Group Rendering Name

OS:Space,
  {c6bea691-8e54-4de8-92e5-cfdff7e98cd1}, !- Handle
  Story 1 Core Space,                     !- Name
  ,                                       !- Space Type Name
  ,                                       !- Default Construction Set Name
  ,                                       !- Default Schedule Set Name
  -0,                                     !- Direction of Relative North {deg}
  0,                                      !- X Origin {m}
  0,                                      !- Y Origin {m}
  0,                                      !- Z Origin {m}
  {1166ffbd-918e-40d7-9283-988252482c62}, !- Building Story Name
  {231deef5-1575-4f55-8afd-c6941333e46f}; !- Thermal Zone Name

OS:Surface,
  {f024fbcd-64de-4d56-8996-5146844b8576}, !- Handle
  Surface 1,                              !- Name
  Floor,                                  !- Surface Type
  ,                                       !- Construction Name
  {c6bea691-8e54-4de8-92e5-cfdff7e98cd1}, !- Space Name
  Ground,                                 !- Outside Boundary Condition
  ,                                       !- Outside Boundary Condition Object
  NoSun,                                  !- Sun Exposure
  NoWind,                                 !- Wind Exposure
  ,                                       !- View Factor to Ground
  ,                                       !- Number of Vertices
  0, 0, 0,                                !- X,Y,Z Vertex 1 {m}
  0, 50, 0,                               !- X,Y,Z Vertex 2 {m}
  100, 50, 0,                             !- X,Y,Z Vertex 3 {m}
  100, 0, 0;                              !- X,Y,Z Vertex 4 {m}

OS:Surface,
  {1475c3fc-2d45-4cae-b2d3-e678228f763c}, !- Handle
  Surface 2,                              !- Name
  Wall,                                   !- Surface Type
  ,                                       !- Construction Name
  {c6bea691-8e54-4de8-92e5-cfdff7e98cd1}, !- Space Name
  Outdoors,                               !- Outside Boundary Condition
  ,                                       !- Outside Boundary Condition Object
  SunExposed,                             !- Sun Exposure
  WindExposed,                            !- Wind Exposure
  ,                                       !- View Factor to Ground
  ,                                       !- Number of Vertices
  0, 50, 4,                               !- X,Y,Z Vertex 1 {m}
  0, 50, 0,                               !- X,Y,Z Vertex 2 {m}
  0, 0, 0,                                !- X,Y,Z Vertex 3 {m}
  0, 0, 4;                                !- X,Y,Z Vertex 4 {m}

OS:Surface,
  {5acfd544-dfca-41f5-ac15-d6c9c5cb1810}, !- Handle
  Surface 3,                              !- Name
  Wall,                                   !- Surface Type
  ,                                       !- Construction Name
  {c6bea691-8e54-4de8-92e5-cfdff7e98cd1}, !- Space Name
  Outdoors,                               !- Outside Boundary Condition
  ,                                       !- Outside Boundary Condition Object
  SunExposed,                             !- Sun Exposure
  WindExposed,                            !- Wind Exposure
  ,                                       !- View Factor to Ground
  ,                                       !- Number of Vertices
  100, 50, 4,                             !- X,Y,Z Vertex 1 {m}
  100, 50, 0,                             !- X,Y,Z Vertex 2 {m}
  0, 50, 0,                               !- X,Y,Z Vertex 3 {m}
  0, 50, 4;                               !- X,Y,Z Vertex 4 {m}

OS:Surface,
  {a646e6f6-aa2b-469d-ad03-268690f5005a}, !- Handle
  Surface 4,                              !- Name
  Wall,                                   !- Surface Type
  ,                                       !- Construction Name
  {c6bea691-8e54-4de8-92e5-cfdff7e98cd1}, !- Space Name
  Outdoors,                               !- Outside Boundary Condition
  ,                                       !- Outside Boundary Condition Object
  SunExposed,                             !- Sun Exposure
  WindExposed,                            !- Wind Exposure
  ,                                       !- View Factor to Ground
  ,                                       !- Number of Vertices
  100, 0, 4,                              !- X,Y,Z Vertex 1 {m}
  100, 0, 0,                              !- X,Y,Z Vertex 2 {m}
  100, 50, 0,                             !- X,Y,Z Vertex 3 {m}
  100, 50, 4;                             !- X,Y,Z Vertex 4 {m}

OS:Surface,
  {e85757be-d64b-4ab4-938a-58a7b245248e}, !- Handle
  Surface 5,                              !- Name
  Wall,                                   !- Surface Type
  ,                                       !- Construction Name
  {c6bea691-8e54-4de8-92e5-cfdff7e98cd1}, !- Space Name
  Outdoors,                               !- Outside Boundary Condition
  ,                                       !- Outside Boundary Condition Object
  SunExposed,                             !- Sun Exposure
  WindExposed,                            !- Wind Exposure
  ,                                       !- View Factor to Ground
  ,                                       !- Number of Vertices
  0, 0, 4,                                !- X,Y,Z Vertex 1 {m}
  0, 0, 0,                                !- X,Y,Z Vertex 2 {m}
  100, 0, 0,                              !- X,Y,Z Vertex 3 {m}
  100, 0, 4;                              !- X,Y,Z Vertex 4 {m}

OS:Surface,
  {d8410ecf-742f-4043-ba31-388df5c8b17c}, !- Handle
  Surface 6,                              !- Name
  RoofCeiling,                            !- Surface Type
  ,                                       !- Construction Name
  {c6bea691-8e54-4de8-92e5-cfdff7e98cd1}, !- Space Name
  Outdoors,                               !- Outside Boundary Condition
  ,                                       !- Outside Boundary Condition Object
  SunExposed,                             !- Sun Exposure
  WindExposed,                            !- Wind Exposure
  ,                                       !- View Factor to Ground
  ,                                       !- Number of Vertices
  100, 0, 4,                              !- X,Y,Z Vertex 1 {m}
  100, 50, 4,                             !- X,Y,Z Vertex 2 {m}
  0, 50, 4,                               !- X,Y,Z Vertex 3 {m}
  0, 0, 4;                                !- X,Y,Z Vertex 4 {m}

OS:ThermalZone,
  {231deef5-1575-4f55-8afd-c6941333e46f}, !- Handle
  Story 1 Core Thermal Zone,              !- Name
  ,                                       !- Multiplier
  ,                                       !- Ceiling Height {m}
  ,                                       !- Volume {m3}
  ,                                       !- Floor Area {m2}
  ,                                       !- Zone Inside Convection Algorithm
  ,                                       !- Zone Outside Convection Algorithm
  ,                                       !- Zone Conditioning Equipment List Name
  {fb5a69b0-922b-4fe0-8896-77c8c3611811}, !- Zone Air Inlet Port List
  {cac37423-283b-4b20-9348-956cded02077}, !- Zone Air Exhaust Port List
  {1550b64f-2f79-4051-8318-7e0a3ab149f3}, !- Zone Air Node Name
  {98f2a579-8010-4ac8-b605-c0c69d06e6f3}, !- Zone Return Air Node Name
  ,                                       !- Primary Daylighting Control Name
  ,                                       !- Fraction of Zone Controlled by Primary Daylighting Control
  ,                                       !- Secondary Daylighting Control Name
  ,                                       !- Fraction of Zone Controlled by Secondary Daylighting Control
  ,                                       !- Illuminance Map Name
  ,                                       !- Group Rendering Name
  {4543f971-d660-4ea0-925e-8b63b18e45a2}, !- Thermostat Name
  No;                                     !- Use Ideal Air Loads

OS:Node,
  {ad596517-4b9a-4d39-91b8-8904fd489420}, !- Handle
  Node 1,                                 !- Name
  {1550b64f-2f79-4051-8318-7e0a3ab149f3}, !- Inlet Port
  ;                                       !- Outlet Port

OS:Connection,
  {1550b64f-2f79-4051-8318-7e0a3ab149f3}, !- Handle
  {e6b2be77-5800-4df8-96c8-19197aa35d4e}, !- Name
  {231deef5-1575-4f55-8afd-c6941333e46f}, !- Source Object
  11,                                     !- Outlet Port
  {ad596517-4b9a-4d39-91b8-8904fd489420}, !- Target Object
  2;                                      !- Inlet Port

OS:PortList,
  {fb5a69b0-922b-4fe0-8896-77c8c3611811}, !- Handle
  {7a400c56-07ac-4703-81f9-f495f8ff077d}, !- Name
  {231deef5-1575-4f55-8afd-c6941333e46f}, !- HVAC Component
  {3121acde-9a33-48e8-8c7c-0c6757077590}; !- Port 1

OS:PortList,
  {cac37423-283b-4b20-9348-956cded02077}, !- Handle
  {51171d80-e367-45a4-95a3-0a1d0a820980}, !- Name
  {231deef5-1575-4f55-8afd-c6941333e46f}; !- HVAC Component

OS:Sizing:Zone,
  {2638a7e3-2a92-4775-8caf-6b1bc04d942e}, !- Handle
  {231deef5-1575-4f55-8afd-c6941333e46f}, !- Zone or ZoneList Name
  SupplyAirTemperature,                   !- Zone Cooling Design Supply Air Temperature Input Method
  14,                                     !- Zone Cooling Design Supply Air Temperature {C}
  11.11,                                  !- Zone Cooling Design Supply Air Temperature Difference {deltaC}
  SupplyAirTemperature,                   !- Zone Heating Design Supply Air Temperature Input Method
  40,                                     !- Zone Heating Design Supply Air Temperature {C}
  11.11,                                  !- Zone Heating Design Supply Air Temperature Difference {deltaC}
  0.0085,                                 !- Zone Cooling Design Supply Air Humidity Ratio {kg-H2O/kg-air}
  0.008,                                  !- Zone Heating Design Supply Air Humidity Ratio {kg-H2O/kg-air}
  ,                                       !- Zone Heating Sizing Factor
  ,                                       !- Zone Cooling Sizing Factor
  DesignDay,                              !- Cooling Design Air Flow Method
  ,                                       !- Cooling Design Air Flow Rate {m3/s}
  ,                                       !- Cooling Minimum Air Flow per Zone Floor Area {m3/s-m2}
  ,                                       !- Cooling Minimum Air Flow {m3/s}
  ,                                       !- Cooling Minimum Air Flow Fraction
  DesignDay,                              !- Heating Design Air Flow Method
  ,                                       !- Heating Design Air Flow Rate {m3/s}
  ,                                       !- Heating Maximum Air Flow per Zone Floor Area {m3/s-m2}
  ,                                       !- Heating Maximum Air Flow {m3/s}
  ,                                       !- Heating Maximum Air Flow Fraction
  ,                                       !- Design Zone Air Distribution Effectiveness in Cooling Mode
  ,                                       !- Design Zone Air Distribution Effectiveness in Heating Mode
  No,                                     !- Account for Dedicated Outdoor Air System
  NeutralSupplyAir,                       !- Dedicated Outdoor Air System Control Strategy
  autosize,                               !- Dedicated Outdoor Air Low Setpoint Temperature for Design {C}
  autosize;                               !- Dedicated Outdoor Air High Setpoint Temperature for Design {C}

OS:ZoneHVAC:EquipmentList,
  {1b229642-a6b8-4f34-8a4f-f5eef00a7305}, !- Handle
  Zone HVAC Equipment List 1,             !- Name
  {231deef5-1575-4f55-8afd-c6941333e46f}, !- Thermal Zone
  {7e2807a9-e7e7-40a4-818a-9a102d4ac8f6}, !- Zone Equipment 1
  1,                                      !- Zone Equipment Cooling Sequence 1
  1;                                      !- Zone Equipment Heating or No-Load Sequence 1

OS:SubSurface,
  {dbc8d2bd-dd4b-438c-998e-784656e3b32a}, !- Handle
  Sub Surface 1,                          !- Name
  FixedWindow,                            !- Sub Surface Type
  ,                                       !- Construction Name
  {e85757be-d64b-4ab4-938a-58a7b245248e}, !- Surface Name
  ,                                       !- Outside Boundary Condition Object
  ,                                       !- View Factor to Ground
  ,                                       !- Shading Control Name
  ,                                       !- Frame and Divider Name
  ,                                       !- Multiplier
  ,                                       !- Number of Vertices
  0.0254, 0, 2.60081321311226,            !- X,Y,Z Vertex 1 {m}
  0.0254, 0, 1,                           !- X,Y,Z Vertex 2 {m}
  99.9746, 0, 1,                          !- X,Y,Z Vertex 3 {m}
  99.9746, 0, 2.60081321311226;           !- X,Y,Z Vertex 4 {m}

OS:SubSurface,
  {73f104fe-1e6b-48ce-a0b3-2acfde5852c4}, !- Handle
  Sub Surface 2,                          !- Name
  FixedWindow,                            !- Sub Surface Type
  ,                                       !- Construction Name
  {a646e6f6-aa2b-469d-ad03-268690f5005a}, !- Surface Name
  ,                                       !- Outside Boundary Condition Object
  ,                                       !- View Factor to Ground
  ,                                       !- Shading Control Name
  ,                                       !- Frame and Divider Name
  ,                                       !- Multiplier
  ,                                       !- Number of Vertices
  100, 0.0254, 2.60162725328934,          !- X,Y,Z Vertex 1 {m}
  100, 0.0254, 1,                         !- X,Y,Z Vertex 2 {m}
  100, 49.9746, 1,                        !- X,Y,Z Vertex 3 {m}
  100, 49.9746, 2.60162725328934;         !- X,Y,Z Vertex 4 {m}

OS:SubSurface,
  {10260313-7efa-42be-9cdb-c46d987750f2}, !- Handle
  Sub Surface 3,                          !- Name
  FixedWindow,                            !- Sub Surface Type
  ,                                       !- Construction Name
  {5acfd544-dfca-41f5-ac15-d6c9c5cb1810}, !- Surface Name
  ,                                       !- Outside Boundary Condition Object
  ,                                       !- View Factor to Ground
  ,                                       !- Shading Control Name
  ,                                       !- Frame and Divider Name
  ,                                       !- Multiplier
  ,                                       !- Number of Vertices
  99.9746, 50, 2.60081321311226,          !- X,Y,Z Vertex 1 {m}
  99.9746, 50, 1,                         !- X,Y,Z Vertex 2 {m}
  0.0253999999999905, 50, 1,              !- X,Y,Z Vertex 3 {m}
  0.0253999999999905, 50, 2.60081321311226; !- X,Y,Z Vertex 4 {m}

OS:SubSurface,
  {49deb579-dbfe-48ea-a966-969c445be1fd}, !- Handle
  Sub Surface 4,                          !- Name
  FixedWindow,                            !- Sub Surface Type
  ,                                       !- Construction Name
  {1475c3fc-2d45-4cae-b2d3-e678228f763c}, !- Surface Name
  ,                                       !- Outside Boundary Condition Object
  ,                                       !- View Factor to Ground
  ,                                       !- Shading Control Name
  ,                                       !- Frame and Divider Name
  ,                                       !- Multiplier
  ,                                       !- Number of Vertices
  0, 49.9746, 2.60162725328934,           !- X,Y,Z Vertex 1 {m}
  0, 49.9746, 1,                          !- X,Y,Z Vertex 2 {m}
  0, 0.0254000000000048, 1,               !- X,Y,Z Vertex 3 {m}
  0, 0.0254000000000048, 2.60162725328934; !- X,Y,Z Vertex 4 {m}

OS:Schedule:Ruleset,
  {29203111-0e15-4d48-a972-386a255d819a}, !- Handle
  Cooling Sch,                            !- Name
  {d449a789-4f83-474f-9054-b0dd305a92e2}, !- Schedule Type Limits Name
  {a0f68b02-879e-4c13-a82d-2abb3086a7c4}; !- Default Day Schedule Name

OS:Schedule:Day,
  {a0f68b02-879e-4c13-a82d-2abb3086a7c4}, !- Handle
  Cooling Sch Default,                    !- Name
  {d449a789-4f83-474f-9054-b0dd305a92e2}, !- Schedule Type Limits Name
  ,                                       !- Interpolate to Timestep
  24,                                     !- Hour 1
  0,                                      !- Minute 1
  28;                                     !- Value Until Time 1

OS:Schedule:Ruleset,
  {b448c8ce-2c1a-4e9b-a274-92b37a1c9d2a}, !- Handle
  Heating Sch,                            !- Name
  {d449a789-4f83-474f-9054-b0dd305a92e2}, !- Schedule Type Limits Name
  {884984c5-5346-47d2-82d5-25091bb8eec0}; !- Default Day Schedule Name

OS:Schedule:Day,
  {884984c5-5346-47d2-82d5-25091bb8eec0}, !- Handle
  Heating Sch Default,                    !- Name
  {d449a789-4f83-474f-9054-b0dd305a92e2}, !- Schedule Type Limits Name
  ,                                       !- Interpolate to Timestep
  24,                                     !- Hour 1
  0,                                      !- Minute 1
  24;                                     !- Value Until Time 1

OS:ThermostatSetpoint:DualSetpoint,
  {4543f971-d660-4ea0-925e-8b63b18e45a2}, !- Handle
  Thermostat Setpoint Dual Setpoint 1,    !- Name
  {b448c8ce-2c1a-4e9b-a274-92b37a1c9d2a}, !- Heating Setpoint Temperature Schedule Name
  {29203111-0e15-4d48-a972-386a255d819a}; !- Cooling Setpoint Temperature Schedule Name

OS:ScheduleTypeLimits,
  {d449a789-4f83-474f-9054-b0dd305a92e2}, !- Handle
  Temperature,                            !- Name
  ,                                       !- Lower Limit Value
  ,                                       !- Upper Limit Value
  Continuous,                             !- Numeric Type
  Temperature;                            !- Unit Type

OS:DefaultConstructionSet,
  {547c6281-5e09-49dc-8ab8-e04be422b0e7}, !- Handle
  ASHRAE_189.1-2009_ClimateZone 4-5 (mdoff)_ConstSet, !- Name
  {49559eb4-f419-4c17-a503-cca109fa987b}, !- Default Exterior Surface Constructions Name
  {62935219-6740-4769-9763-7fd339fe3fdb}, !- Default Interior Surface Constructions Name
  {5d7d95f5-f606-4b65-a164-deec80b694bb}, !- Default Ground Contact Surface Constructions Name
  {d69a3589-b0c4-4432-9d36-15dccb4540c6}, !- Default Exterior SubSurface Constructions Name
  {11ebc736-0a6f-4636-b48b-d64718b16343}, !- Default Interior SubSurface Constructions Name
  {4417271f-649d-42c5-ab7d-132ce3001b3b}, !- Interior Partition Construction Name
  ,                                       !- Space Shading Construction Name
  ,                                       !- Building Shading Construction Name
  ;                                       !- Site Shading Construction Name

OS:DefaultSurfaceConstructions,
  {49559eb4-f419-4c17-a503-cca109fa987b}, !- Handle
  ASHRAE_189.1-2009_ClimateZone 4-5 (mdoff)_Exterior_DefSurfCons, !- Name
  {f7982dc1-d938-40e0-bd7a-4d552ae0975c}, !- Floor Construction Name
  {ef65eead-963a-4257-a59e-f55ab4475ada}, !- Wall Construction Name
  {667bc34f-fa58-4d3f-847e-1f361c23e8f8}; !- Roof Ceiling Construction Name

OS:DefaultSurfaceConstructions,
  {62935219-6740-4769-9763-7fd339fe3fdb}, !- Handle
  000_Interior_DefSurfCons,               !- Name
  {95e62b51-b565-4a14-861c-3a8edbd66d68}, !- Floor Construction Name
  {77405b36-a19f-4eee-91bd-7fab51ce1746}, !- Wall Construction Name
  {57081f13-d922-4888-8fe5-1bb886ff4803}; !- Roof Ceiling Construction Name

OS:DefaultSurfaceConstructions,
  {5d7d95f5-f606-4b65-a164-deec80b694bb}, !- Handle
  000_Ground_DefSurfCons,                 !- Name
  {f7982dc1-d938-40e0-bd7a-4d552ae0975c}, !- Floor Construction Name
  {f7982dc1-d938-40e0-bd7a-4d552ae0975c}, !- Wall Construction Name
  {f7982dc1-d938-40e0-bd7a-4d552ae0975c}; !- Roof Ceiling Construction Name

OS:DefaultSubSurfaceConstructions,
  {d69a3589-b0c4-4432-9d36-15dccb4540c6}, !- Handle
  ASHRAE_189.1-2009_ClimateZone 4-5 (mdoff)_Exterior_DefSubCons, !- Name
  {e1b0449f-9125-4698-81cf-93b05191ff95}, !- Fixed Window Construction Name
  {e1b0449f-9125-4698-81cf-93b05191ff95}, !- Operable Window Construction Name
  {7b0803dc-e9ba-4706-ba2f-ea3f31ee84d4}, !- Door Construction Name
  {9b8688b1-da82-4e5e-b81d-d8da98cf0895}, !- Glass Door Construction Name
  ,                                       !- Overhead Door Construction Name
  {9b8688b1-da82-4e5e-b81d-d8da98cf0895}, !- Skylight Construction Name
  {125e0f8e-166c-449c-bbd5-cdb981b4b639}, !- Tubular Daylight Dome Construction Name
  {125e0f8e-166c-449c-bbd5-cdb981b4b639}; !- Tubular Daylight Diffuser Construction Name

OS:DefaultSubSurfaceConstructions,
  {11ebc736-0a6f-4636-b48b-d64718b16343}, !- Handle
  000_Interior_DefSubCons,                !- Name
  {125e0f8e-166c-449c-bbd5-cdb981b4b639}, !- Fixed Window Construction Name
  {125e0f8e-166c-449c-bbd5-cdb981b4b639}, !- Operable Window Construction Name
  {f392d401-fcd2-420a-9608-4f26dc363f42}, !- Door Construction Name
  {9b8688b1-da82-4e5e-b81d-d8da98cf0895}, !- Glass Door Construction Name
  ,                                       !- Overhead Door Construction Name
  {9b8688b1-da82-4e5e-b81d-d8da98cf0895}, !- Skylight Construction Name
  {125e0f8e-166c-449c-bbd5-cdb981b4b639}, !- Tubular Daylight Dome Construction Name
  {125e0f8e-166c-449c-bbd5-cdb981b4b639}; !- Tubular Daylight Diffuser Construction Name

OS:Construction,
  {4417271f-649d-42c5-ab7d-132ce3001b3b}, !- Handle
  000_Interior Partition,                 !- Name
  ,                                       !- Surface Rendering Name
  {fe702857-bd0d-416d-a173-e6d68092fdbc}; !- Layer 1

OS:Construction,
  {f7982dc1-d938-40e0-bd7a-4d552ae0975c}, !- Handle
  000_ExtSlabCarpet_4in_ClimateZone 1-8,  !- Name
  ,                                       !- Surface Rendering Name
  {9e0636a4-563d-4ad2-880f-bc2fbb642a2f}, !- Layer 1
  {97b10aa3-feaf-4791-b372-7f5a5dd315d3}; !- Layer 2

OS:Construction,
  {ef65eead-963a-4257-a59e-f55ab4475ada}, !- Handle
  ASHRAE_189.1-2009_ExtWall_SteelFrame_ClimateZone 4-8, !- Name
  ,                                       !- Surface Rendering Name
  {96250790-9589-40b3-b06f-1ee4babb391d}, !- Layer 1
  {4892c137-fb21-49df-981c-9641cc715e5c}, !- Layer 2
  {cfd7d304-2d04-4eee-9e55-193f6251e7cc}; !- Layer 3

OS:Construction,
  {667bc34f-fa58-4d3f-847e-1f361c23e8f8}, !- Handle
  ASHRAE_189.1-2009_ExtRoof_IEAD_ClimateZone 2-5, !- Name
  ,                                       !- Surface Rendering Name
  {9a35d719-8300-49cb-b944-7f72fad72ef8}, !- Layer 1
  {1a2cd983-a6de-4477-809c-436872e6f760}, !- Layer 2
  {ef504ee7-565b-4a30-b587-995bedd58022}; !- Layer 3

OS:Construction,
  {95e62b51-b565-4a14-861c-3a8edbd66d68}, !- Handle
  000_Interior Floor,                     !- Name
  ,                                       !- Surface Rendering Name
  {eb382c5b-9c21-4834-ac4f-22aadb615a53}, !- Layer 1
  {6e45e353-df8d-4fb9-a926-387cf5b83260}, !- Layer 2
  {c1dbae8f-6c3e-4f6e-bcae-9a3e98fa2361}; !- Layer 3

OS:Construction,
  {77405b36-a19f-4eee-91bd-7fab51ce1746}, !- Handle
  000_Interior Wall,                      !- Name
  ,                                       !- Surface Rendering Name
  {199c0c29-9da0-431b-95f6-d368b7e05fa3}, !- Layer 1
  {6d8c0c98-a4d6-4baa-9651-c14a50e4c103}, !- Layer 2
  {199c0c29-9da0-431b-95f6-d368b7e05fa3}; !- Layer 3

OS:Construction,
  {57081f13-d922-4888-8fe5-1bb886ff4803}, !- Handle
  000_Interior Ceiling,                   !- Name
  ,                                       !- Surface Rendering Name
  {c1dbae8f-6c3e-4f6e-bcae-9a3e98fa2361}, !- Layer 1
  {6e45e353-df8d-4fb9-a926-387cf5b83260}, !- Layer 2
  {eb382c5b-9c21-4834-ac4f-22aadb615a53}; !- Layer 3

OS:Construction,
  {e1b0449f-9125-4698-81cf-93b05191ff95}, !- Handle
  ASHRAE_189.1-2009_ExtWindow_ClimateZone 4-5, !- Name
  ,                                       !- Surface Rendering Name
  {10a69236-1a25-4505-9e76-3639fc842d08}; !- Layer 1

OS:Construction,
  {7b0803dc-e9ba-4706-ba2f-ea3f31ee84d4}, !- Handle
  000_Exterior Door,                      !- Name
  ,                                       !- Surface Rendering Name
  {0634572f-7c80-4463-adba-98dcb8ccc9e6}, !- Layer 1
  {1bdb18e3-77bc-4d31-bcc8-31a7890bdb92}; !- Layer 2

OS:Construction,
  {9b8688b1-da82-4e5e-b81d-d8da98cf0895}, !- Handle
  000_Exterior Window,                    !- Name
  ,                                       !- Surface Rendering Name
  {9a758a04-c733-49b3-b3b4-7505640d9b5f}, !- Layer 1
  {599067d5-38cd-45ef-950f-5e3bde462286}, !- Layer 2
  {9a758a04-c733-49b3-b3b4-7505640d9b5f}; !- Layer 3

OS:Construction,
  {125e0f8e-166c-449c-bbd5-cdb981b4b639}, !- Handle
  000_Interior Window,                    !- Name
  ,                                       !- Surface Rendering Name
  {9a758a04-c733-49b3-b3b4-7505640d9b5f}; !- Layer 1

OS:Construction,
  {f392d401-fcd2-420a-9608-4f26dc363f42}, !- Handle
  000_Interior Door,                      !- Name
  ,                                       !- Surface Rendering Name
  {fe702857-bd0d-416d-a173-e6d68092fdbc}; !- Layer 1

OS:Material,
  {fe702857-bd0d-416d-a173-e6d68092fdbc}, !- Handle
  000_G05 25mm wood,                      !- Name
  MediumSmooth,                           !- Roughness
  0.025399999999999999,                   !- Thickness
  0.14999999999999999,                    !- Conductivity
  608,                                    !- Density
  1630;                                   !- Specific Heat

OS:Material,
  {9e0636a4-563d-4ad2-880f-bc2fbb642a2f}, !- Handle
  MAT-CC05 4 HW CONCRETE,                 !- Name
  Rough,                                  !- Roughness
  0.1016,                                 !- Thickness
  1.3109999999999999,                     !- Conductivity
  2240,                                   !- Density
  836.79999999999995,                     !- Specific Heat
  0.90000000000000002,                    !- Thermal Absorptance
  0.69999999999999996,                    !- Solar Absorptance
  0.69999999999999996;                    !- Visible Absorptance

OS:Material:NoMass,
  {97b10aa3-feaf-4791-b372-7f5a5dd315d3}, !- Handle
  CP02 CARPET PAD,                        !- Name
  VeryRough,                              !- Roughness
  0.2165,                                 !- Thermal Resistance
  0.90000000000000002,                    !- Thermal Absorptance
  0.69999999999999996,                    !- Solar Absorptance
  0.80000000000000004;                    !- Visible Absorptance

OS:Material:NoMass,
  {96250790-9589-40b3-b06f-1ee4babb391d}, !- Handle
  MAT-SHEATH,                             !- Name
  Rough,                                  !- Roughness
  0.36259999999999998,                    !- Thermal Resistance
  0.90000000000000002,                    !- Thermal Absorptance
  0.69999999999999996,                    !- Solar Absorptance
  0.69999999999999996;                    !- Visible Absorptance

OS:Material,
  {4892c137-fb21-49df-981c-9641cc715e5c}, !- Handle
  Wall Insulation [39],                   !- Name
  MediumRough,                            !- Roughness
  0.11840000000000001,                    !- Thickness
  0.044999999999999998,                   !- Conductivity
  265,                                    !- Density
  836.79999999999995,                     !- Specific Heat
  0.90000000000000002,                    !- Thermal Absorptance
  0.69999999999999996,                    !- Solar Absorptance
  0.69999999999999996;                    !- Visible Absorptance

OS:Material,
  {cfd7d304-2d04-4eee-9e55-193f6251e7cc}, !- Handle
  1/2IN Gypsum,                           !- Name
  Smooth,                                 !- Roughness
  0.012699999999999999,                   !- Thickness
  0.16,                                   !- Conductivity
  784.89999999999998,                     !- Density
  830,                                    !- Specific Heat
  0.90000000000000002,                    !- Thermal Absorptance
  0.92000000000000004,                    !- Solar Absorptance
  0.92000000000000004;                    !- Visible Absorptance

OS:Material,
  {9a35d719-8300-49cb-b944-7f72fad72ef8}, !- Handle
  Roof Membrane,                          !- Name
  VeryRough,                              !- Roughness
  0.0094999999999999998,                  !- Thickness
  0.16,                                   !- Conductivity
  1121.29,                                !- Density
  1460,                                   !- Specific Heat
  0.90000000000000002,                    !- Thermal Absorptance
  0.69999999999999996,                    !- Solar Absorptance
  0.69999999999999996;                    !- Visible Absorptance

OS:Material,
  {1a2cd983-a6de-4477-809c-436872e6f760}, !- Handle
  Roof Insulation [21],                   !- Name
  MediumRough,                            !- Roughness
  0.21049999999999999,                    !- Thickness
  0.049000000000000002,                   !- Conductivity
  265,                                    !- Density
  836.79999999999995,                     !- Specific Heat
  0.90000000000000002,                    !- Thermal Absorptance
  0.69999999999999996,                    !- Solar Absorptance
  0.69999999999999996;                    !- Visible Absorptance

OS:Material,
  {ef504ee7-565b-4a30-b587-995bedd58022}, !- Handle
  Metal Decking,                          !- Name
  MediumSmooth,                           !- Roughness
  0.0015,                                 !- Thickness
  45.006,                                 !- Conductivity