
OS:Version,
  {a2fb0186-b563-4c5c-a914-0f7c4406df81}, !- Handle
  3.3.0;                                  !- Version Identifier

OS:BuildingStory,
  {289be93c-cb95-4f73-bbf8-7ee25110b48e}, !- Handle
  Story 1,                                !- Name
  0,                                      !- Nominal Z Coordinate {m}
  4,                                      !- Nominal Floor to Floor Height {m}
  ,                                       !- Default Construction Set Name
  ,                                       !- Default Schedule Set Name
  ;                                       !- Group Rendering Name

OS:Space,
  {74d752ee-3129-4c80-a6a2-15ebb48abc84}, !- Handle
  Story 1 Core Space,                     !- Name
  ,                                       !- Space Type Name
  ,                                       !- Default Construction Set Name
  ,                                       !- Default Schedule Set Name
  -0,                                     !- Direction of Relative North {deg}
  0,                                      !- X Origin {m}
  0,                                      !- Y Origin {m}
  0,                                      !- Z Origin {m}
  {289be93c-cb95-4f73-bbf8-7ee25110b48e}, !- Building Story Name
  {2a19580b-b257-485f-aab4-fda732103f68}; !- Thermal Zone Name

OS:Surface,
  {d4c0b5e7-309d-4d19-8bf4-325c6eff753e}, !- Handle
  Story 1 Core Space Exterior Ground Floor, !- Name
  Floor,                                  !- Surface Type
  ,                                       !- Construction Name
  {74d752ee-3129-4c80-a6a2-15ebb48abc84}, !- Space Name
  Ground,                                 !- Outside Boundary Condition
  ,                                       !- Outside Boundary Condition Object
  NoSun,                                  !- Sun Exposure
  NoWind,                                 !- Wind Exposure
  ,                                       !- View Factor to Ground
  ,                                       !- Number of Vertices
  0, 0, 0,                                !- X,Y,Z Vertex 1 {m}
  0, 50, 0,                               !- X,Y,Z Vertex 2 {m}
  100, 50, 0,                             !- X,Y,Z Vertex 3 {m}
  100, 0, 0;                              !- X,Y,Z Vertex 4 {m}

OS:Surface,
  {10f69862-8724-4792-bcad-06c6720fbed7}, !- Handle
  Story 1 Core Space Exterior Wall 3,     !- Name
  Wall,                                   !- Surface Type
  ,                                       !- Construction Name
  {74d752ee-3129-4c80-a6a2-15ebb48abc84}, !- Space Name
  Outdoors,                               !- Outside Boundary Condition
  ,                                       !- Outside Boundary Condition Object
  SunExposed,                             !- Sun Exposure
  WindExposed,                            !- Wind Exposure
  ,                                       !- View Factor to Ground
  ,                                       !- Number of Vertices
  0, 50, 4,                               !- X,Y,Z Vertex 1 {m}
  0, 50, 0,                               !- X,Y,Z Vertex 2 {m}
  0, 0, 0,                                !- X,Y,Z Vertex 3 {m}
  0, 0, 4;                                !- X,Y,Z Vertex 4 {m}

OS:Surface,
  {3cb7e90b-6b82-48c1-9466-8d26d4e16170}, !- Handle
  Story 1 Core Space Exterior Wall 2,     !- Name
  Wall,                                   !- Surface Type
  ,                                       !- Construction Name
  {74d752ee-3129-4c80-a6a2-15ebb48abc84}, !- Space Name
  Outdoors,                               !- Outside Boundary Condition
  ,                                       !- Outside Boundary Condition Object
  SunExposed,                             !- Sun Exposure
  WindExposed,                            !- Wind Exposure
  ,                                       !- View Factor to Ground
  ,                                       !- Number of Vertices
  100, 50, 4,                             !- X,Y,Z Vertex 1 {m}
  100, 50, 0,                             !- X,Y,Z Vertex 2 {m}
  0, 50, 0,                               !- X,Y,Z Vertex 3 {m}
  0, 50, 4;                               !- X,Y,Z Vertex 4 {m}

OS:Surface,
  {333573f5-bdf7-4ff9-96e2-85e081bd845c}, !- Handle
  Story 1 Core Space Exterior Wall,       !- Name
  Wall,                                   !- Surface Type
  ,                                       !- Construction Name
  {74d752ee-3129-4c80-a6a2-15ebb48abc84}, !- Space Name
  Outdoors,                               !- Outside Boundary Condition
  ,                                       !- Outside Boundary Condition Object
  SunExposed,                             !- Sun Exposure
  WindExposed,                            !- Wind Exposure
  ,                                       !- View Factor to Ground
  ,                                       !- Number of Vertices
  100, 0, 4,                              !- X,Y,Z Vertex 1 {m}
  100, 0, 0,                              !- X,Y,Z Vertex 2 {m}
  100, 50, 0,                             !- X,Y,Z Vertex 3 {m}
  100, 50, 4;                             !- X,Y,Z Vertex 4 {m}

OS:Surface,
  {802ce58c-e700-4ca6-840f-761fdaa69c2c}, !- Handle
  Story 1 Core Space Exterior Wall 1,     !- Name
  Wall,                                   !- Surface Type
  ,                                       !- Construction Name
  {74d752ee-3129-4c80-a6a2-15ebb48abc84}, !- Space Name
  Outdoors,                               !- Outside Boundary Condition
  ,                                       !- Outside Boundary Condition Object
  SunExposed,                             !- Sun Exposure
  WindExposed,                            !- Wind Exposure
  ,                                       !- View Factor to Ground
  ,                                       !- Number of Vertices
  0, 0, 4,                                !- X,Y,Z Vertex 1 {m}
  0, 0, 0,                                !- X,Y,Z Vertex 2 {m}
  100, 0, 0,                              !- X,Y,Z Vertex 3 {m}
  100, 0, 4;                              !- X,Y,Z Vertex 4 {m}

OS:Surface,
  {e79eec21-fe5e-414a-9a2c-15d624352bb7}, !- Handle
  Story 1 Core Space Exterior Roof,       !- Name
  RoofCeiling,                            !- Surface Type
  ,                                       !- Construction Name
  {74d752ee-3129-4c80-a6a2-15ebb48abc84}, !- Space Name
  Outdoors,                               !- Outside Boundary Condition
  ,                                       !- Outside Boundary Condition Object
  SunExposed,                             !- Sun Exposure
  WindExposed,                            !- Wind Exposure
  ,                                       !- View Factor to Ground
  ,                                       !- Number of Vertices
  100, 0, 4,                              !- X,Y,Z Vertex 1 {m}
  100, 50, 4,                             !- X,Y,Z Vertex 2 {m}
  0, 50, 4,                               !- X,Y,Z Vertex 3 {m}
  0, 0, 4;                                !- X,Y,Z Vertex 4 {m}

OS:ThermalZone,
  {2a19580b-b257-485f-aab4-fda732103f68}, !- Handle
  Story 1 Core Thermal Zone,              !- Name
  ,                                       !- Multiplier
  ,                                       !- Ceiling Height {m}
  ,                                       !- Volume {m3}
  ,                                       !- Floor Area {m2}
  ,                                       !- Zone Inside Convection Algorithm
  ,                                       !- Zone Outside Convection Algorithm
  ,                                       !- Zone Conditioning Equipment List Name
  {7ea797ec-3d78-4853-9a66-79916dea7ca1}, !- Zone Air Inlet Port List
  {6e677602-c143-4299-a0a3-cb352af540f9}, !- Zone Air Exhaust Port List
  {40f9a0f3-b501-4d96-9d17-98ded52a3bf1}, !- Zone Air Node Name
  {f2ded3bb-3b43-4f0a-a17e-fc7aefb80e53}, !- Zone Return Air Port List
  ,                                       !- Primary Daylighting Control Name
  ,                                       !- Fraction of Zone Controlled by Primary Daylighting Control
  ,                                       !- Secondary Daylighting Control Name
  ,                                       !- Fraction of Zone Controlled by Secondary Daylighting Control
  ,                                       !- Illuminance Map Name
  ,                                       !- Group Rendering Name
  {56293df3-16b1-406e-9a66-862dec0d0d60}, !- Thermostat Name
  No;                                     !- Use Ideal Air Loads

OS:Node,
  {02fb69e1-9cff-4237-806e-01fcd3b0174b}, !- Handle
  Node 1,                                 !- Name
  {40f9a0f3-b501-4d96-9d17-98ded52a3bf1}, !- Inlet Port
  ;                                       !- Outlet Port

OS:Connection,
  {40f9a0f3-b501-4d96-9d17-98ded52a3bf1}, !- Handle
  {2a19580b-b257-485f-aab4-fda732103f68}, !- Source Object
  11,                                     !- Outlet Port
  {02fb69e1-9cff-4237-806e-01fcd3b0174b}, !- Target Object
  2;                                      !- Inlet Port

OS:PortList,
  {7ea797ec-3d78-4853-9a66-79916dea7ca1}, !- Handle
  {2a19580b-b257-485f-aab4-fda732103f68}, !- HVAC Component
  {2afd4e3a-47ee-44ec-929a-f252b497a139}; !- Port 1

OS:PortList,
  {6e677602-c143-4299-a0a3-cb352af540f9}, !- Handle
  {2a19580b-b257-485f-aab4-fda732103f68}; !- HVAC Component

OS:PortList,
  {f2ded3bb-3b43-4f0a-a17e-fc7aefb80e53}, !- Handle
  {2a19580b-b257-485f-aab4-fda732103f68}, !- HVAC Component
  {dd4747b0-764f-4d10-a813-dfaaa6c123c4}; !- Port 1

OS:Sizing:Zone,
  {834949be-1413-4286-a737-5449e8ac8518}, !- Handle
  {2a19580b-b257-485f-aab4-fda732103f68}, !- Zone or ZoneList Name
  SupplyAirTemperature,                   !- Zone Cooling Design Supply Air Temperature Input Method
  14,                                     !- Zone Cooling Design Supply Air Temperature {C}
  11.11,                                  !- Zone Cooling Design Supply Air Temperature Difference {deltaC}
  SupplyAirTemperature,                   !- Zone Heating Design Supply Air Temperature Input Method
  40,                                     !- Zone Heating Design Supply Air Temperature {C}
  11.11,                                  !- Zone Heating Design Supply Air Temperature Difference {deltaC}
  0.0085,                                 !- Zone Cooling Design Supply Air Humidity Ratio {kg-H2O/kg-air}
  0.008,                                  !- Zone Heating Design Supply Air Humidity Ratio {kg-H2O/kg-air}
  ,                                       !- Zone Heating Sizing Factor
  ,                                       !- Zone Cooling Sizing Factor
  DesignDay,                              !- Cooling Design Air Flow Method
  ,                                       !- Cooling Design Air Flow Rate {m3/s}
  ,                                       !- Cooling Minimum Air Flow per Zone Floor Area {m3/s-m2}
  ,                                       !- Cooling Minimum Air Flow {m3/s}
  ,                                       !- Cooling Minimum Air Flow Fraction
  DesignDay,                              !- Heating Design Air Flow Method
  ,                                       !- Heating Design Air Flow Rate {m3/s}
  ,                                       !- Heating Maximum Air Flow per Zone Floor Area {m3/s-m2}
  ,                                       !- Heating Maximum Air Flow {m3/s}
  ,                                       !- Heating Maximum Air Flow Fraction
  No,                                     !- Account for Dedicated Outdoor Air System
  NeutralSupplyAir,                       !- Dedicated Outdoor Air System Control Strategy
  autosize,                               !- Dedicated Outdoor Air Low Setpoint Temperature for Design {C}
  autosize;                               !- Dedicated Outdoor Air High Setpoint Temperature for Design {C}

OS:ZoneHVAC:EquipmentList,
  {d829b596-710a-4e0b-bbc7-a0755623319e}, !- Handle
  Zone HVAC Equipment List 1,             !- Name
  {2a19580b-b257-485f-aab4-fda732103f68}, !- Thermal Zone
  ,                                       !- Load Distribution Scheme
  {581ef787-1426-48ac-8e54-f8b65f26cf8c}, !- Zone Equipment 1
  1,                                      !- Zone Equipment Cooling Sequence 1
  1,                                      !- Zone Equipment Heating or No-Load Sequence 1
  ,                                       !- Zone Equipment Sequential Cooling Fraction Schedule Name 1
  ;                                       !- Zone Equipment Sequential Heating Fraction Schedule Name 1

OS:SubSurface,
  {0f4f2d69-21d2-4ae4-8c1d-46694b83f7e7}, !- Handle
  Story 1 Core Space Exterior Wall 1 Window, !- Name
  FixedWindow,                            !- Sub Surface Type
  ,                                       !- Construction Name
  {802ce58c-e700-4ca6-840f-761fdaa69c2c}, !- Surface Name
  ,                                       !- Outside Boundary Condition Object
  ,                                       !- View Factor to Ground
  ,                                       !- Frame and Divider Name
  ,                                       !- Multiplier
  ,                                       !- Number of Vertices
  0.0254, 0, 2.60081321311226,            !- X,Y,Z Vertex 1 {m}
  0.0254, 0, 1,                           !- X,Y,Z Vertex 2 {m}
  99.9746, 0, 1,                          !- X,Y,Z Vertex 3 {m}
  99.9746, 0, 2.60081321311226;           !- X,Y,Z Vertex 4 {m}

OS:SubSurface,
  {139a9b82-04c5-4be3-bdf8-efbcdbff9c73}, !- Handle
  Story 1 Core Space Exterior Wall Window, !- Name
  FixedWindow,                            !- Sub Surface Type
  ,                                       !- Construction Name
  {333573f5-bdf7-4ff9-96e2-85e081bd845c}, !- Surface Name
  ,                                       !- Outside Boundary Condition Object
  ,                                       !- View Factor to Ground
  ,                                       !- Frame and Divider Name
  ,                                       !- Multiplier
  ,                                       !- Number of Vertices
  100, 0.0254, 2.60162725328934,          !- X,Y,Z Vertex 1 {m}
  100, 0.0254, 1,                         !- X,Y,Z Vertex 2 {m}
  100, 49.9746, 1,                        !- X,Y,Z Vertex 3 {m}
  100, 49.9746, 2.60162725328934;         !- X,Y,Z Vertex 4 {m}

OS:SubSurface,
  {22f48072-82aa-4c1f-b4c0-d4e7311fb69a}, !- Handle
  Story 1 Core Space Exterior Wall 2 Window, !- Name
  FixedWindow,                            !- Sub Surface Type
  ,                                       !- Construction Name
  {3cb7e90b-6b82-48c1-9466-8d26d4e16170}, !- Surface Name
  ,                                       !- Outside Boundary Condition Object
  ,                                       !- View Factor to Ground
  ,                                       !- Frame and Divider Name
  ,                                       !- Multiplier
  ,                                       !- Number of Vertices
  99.9746, 50, 2.60081321311226,          !- X,Y,Z Vertex 1 {m}
  99.9746, 50, 1,                         !- X,Y,Z Vertex 2 {m}
  0.0253999999999905, 50, 1,              !- X,Y,Z Vertex 3 {m}
  0.0253999999999905, 50, 2.60081321311226; !- X,Y,Z Vertex 4 {m}

OS:SubSurface,
  {a5b96f3f-782b-472c-8ea6-b31b65680e7d}, !- Handle
  Story 1 Core Space Exterior Wall 3 Window, !- Name
  FixedWindow,                            !- Sub Surface Type
  ,                                       !- Construction Name
  {10f69862-8724-4792-bcad-06c6720fbed7}, !- Surface Name
  ,                                       !- Outside Boundary Condition Object
  ,                                       !- View Factor to Ground
  ,                                       !- Frame and Divider Name
  ,                                       !- Multiplier
  ,                                       !- Number of Vertices
  0, 49.9746, 2.60162725328934,           !- X,Y,Z Vertex 1 {m}
  0, 49.9746, 1,                          !- X,Y,Z Vertex 2 {m}
  0, 0.0254000000000048, 1,               !- X,Y,Z Vertex 3 {m}
  0, 0.0254000000000048, 2.60162725328934; !- X,Y,Z Vertex 4 {m}

OS:Schedule:Ruleset,
  {972e7a26-8147-4b0f-972e-c96c203fac7f}, !- Handle
  Cooling Sch,                            !- Name
  {3e454ca9-122f-4736-b414-b30ae44ffa3c}, !- Schedule Type Limits Name
  {0837417e-7aca-4e20-b1ab-602dd028b642}; !- Default Day Schedule Name

OS:Schedule:Day,
  {0837417e-7aca-4e20-b1ab-602dd028b642}, !- Handle
  Cooling Sch Default,                    !- Name
  {3e454ca9-122f-4736-b414-b30ae44ffa3c}, !- Schedule Type Limits Name
  ,                                       !- Interpolate to Timestep
  24,                                     !- Hour 1
  0,                                      !- Minute 1
  28;                                     !- Value Until Time 1

OS:Schedule:Ruleset,
  {41546ba5-e0df-48be-94c7-bbb304444fe0}, !- Handle
  Heating Sch,                            !- Name
  {3e454ca9-122f-4736-b414-b30ae44ffa3c}, !- Schedule Type Limits Name
  {dd1c7284-e55c-4479-85b5-9ef7f64402f8}; !- Default Day Schedule Name

OS:Schedule:Day,
  {dd1c7284-e55c-4479-85b5-9ef7f64402f8}, !- Handle
  Heating Sch Default,                    !- Name
  {3e454ca9-122f-4736-b414-b30ae44ffa3c}, !- Schedule Type Limits Name
  ,                                       !- Interpolate to Timestep
  24,                                     !- Hour 1
  0,                                      !- Minute 1
  24;                                     !- Value Until Time 1

OS:ThermostatSetpoint:DualSetpoint,
  {56293df3-16b1-406e-9a66-862dec0d0d60}, !- Handle
  Thermostat Setpoint Dual Setpoint 1,    !- Name
  {41546ba5-e0df-48be-94c7-bbb304444fe0}, !- Heating Setpoint Temperature Schedule Name
  {972e7a26-8147-4b0f-972e-c96c203fac7f}; !- Cooling Setpoint Temperature Schedule Name

OS:ScheduleTypeLimits,
  {3e454ca9-122f-4736-b414-b30ae44ffa3c}, !- Handle
  Temperature,                            !- Name
  ,                                       !- Lower Limit Value
  ,                                       !- Upper Limit Value
  Continuous,                             !- Numeric Type
  Temperature;                            !- Unit Type

OS:DefaultConstructionSet,
  {6bec04d4-bed2-44f8-9eb5-512c27cce0b3}, !- Handle
  ASHRAE_189.1-2009_ClimateZone 4-5 (mdoff)_ConstSet, !- Name
  {d03d8271-d5d9-494e-ac62-df791a0c60bb}, !- Default Exterior Surface Constructions Name
  {f45b4404-095e-4236-87e5-bd2ff7bc7acd}, !- Default Interior Surface Constructions Name
  {413f0d50-c548-4811-96b3-20e2bcc0ca44}, !- Default Ground Contact Surface Constructions Name
  {2bda1ca5-f6ee-49cc-92de-2cd4fb6789d7}, !- Default Exterior SubSurface Constructions Name
  {d1588f92-4753-433f-a6a1-7166b8a7fbbe}, !- Default Interior SubSurface Constructions Name
  {84ffcda6-6073-45c3-b404-7f7f7900356f}, !- Interior Partition Construction Name
  ,                                       !- Space Shading Construction Name
  ,                                       !- Building Shading Construction Name
  ,                                       !- Site Shading Construction Name
  ;                                       !- Adiabatic Surface Construction Name

OS:DefaultSurfaceConstructions,
  {d03d8271-d5d9-494e-ac62-df791a0c60bb}, !- Handle
  ASHRAE_189.1-2009_ClimateZone 4-5 (mdoff)_Exterior_DefSurfCons, !- Name
  {9482d0fe-8a74-4168-8607-bdeb2efd27e5}, !- Floor Construction Name
  {eebddedb-6634-4d68-ada9-4e8220a03014}, !- Wall Construction Name
  {695794c4-ace1-401d-90cb-bc1b6a5fefc2}; !- Roof Ceiling Construction Name

OS:DefaultSurfaceConstructions,
  {f45b4404-095e-4236-87e5-bd2ff7bc7acd}, !- Handle
  000_Interior_DefSurfCons,               !- Name
  {43870b5f-d7c7-446f-b04b-5fe6f7de599e}, !- Floor Construction Name
  {29c3548c-8929-49f8-8d15-94e5fff7fd91}, !- Wall Construction Name
  {f5a5ab99-e615-4992-9ade-c7f48702bc95}; !- Roof Ceiling Construction Name

OS:DefaultSurfaceConstructions,
  {413f0d50-c548-4811-96b3-20e2bcc0ca44}, !- Handle
  000_Ground_DefSurfCons,                 !- Name
  {9482d0fe-8a74-4168-8607-bdeb2efd27e5}, !- Floor Construction Name
  {9482d0fe-8a74-4168-8607-bdeb2efd27e5}, !- Wall Construction Name
  {9482d0fe-8a74-4168-8607-bdeb2efd27e5}; !- Roof Ceiling Construction Name

OS:DefaultSubSurfaceConstructions,
  {2bda1ca5-f6ee-49cc-92de-2cd4fb6789d7}, !- Handle
  ASHRAE_189.1-2009_ClimateZone 4-5 (mdoff)_Exterior_DefSubCons, !- Name
  {a31d91ff-355d-4dd3-92bd-76bb2305f8a3}, !- Fixed Window Construction Name
  {a31d91ff-355d-4dd3-92bd-76bb2305f8a3}, !- Operable Window Construction Name
  {ae96871d-c0f3-4fb8-b0d0-9f84ada51c5f}, !- Door Construction Name
  {2356f2b1-53f4-4c71-976b-7b176dad6f30}, !- Glass Door Construction Name
  ,                                       !- Overhead Door Construction Name
  {2356f2b1-53f4-4c71-976b-7b176dad6f30}, !- Skylight Construction Name
  {36f24a0a-45a4-4f64-8f8b-e550ba1744a5}, !- Tubular Daylight Dome Construction Name
  {36f24a0a-45a4-4f64-8f8b-e550ba1744a5}; !- Tubular Daylight Diffuser Construction Name

OS:DefaultSubSurfaceConstructions,
  {d1588f92-4753-433f-a6a1-7166b8a7fbbe}, !- Handle
  000_Interior_DefSubCons,                !- Name
  {36f24a0a-45a4-4f64-8f8b-e550ba1744a5}, !- Fixed Window Construction Name
  {36f24a0a-45a4-4f64-8f8b-e550ba1744a5}, !- Operable Window Construction Name
  {a274c976-985f-4370-8cb5-825485e74099}, !- Door Construction Name
  {2356f2b1-53f4-4c71-976b-7b176dad6f30}, !- Glass Door Construction Name
  ,                                       !- Overhead Door Construction Name
  {2356f2b1-53f4-4c71-976b-7b176dad6f30}, !- Skylight Construction Name
  {36f24a0a-45a4-4f64-8f8b-e550ba1744a5}, !- Tubular Daylight Dome Construction Name
  {36f24a0a-45a4-4f64-8f8b-e550ba1744a5}; !- Tubular Daylight Diffuser Construction Name

OS:Construction,
  {84ffcda6-6073-45c3-b404-7f7f7900356f}, !- Handle
  000_Interior Partition,                 !- Name
  ,                                       !- Surface Rendering Name
  {d1ae8a67-5c20-4a03-b354-7dc9409b4d23}; !- Layer 1

OS:Construction,
  {9482d0fe-8a74-4168-8607-bdeb2efd27e5}, !- Handle
  000_ExtSlabCarpet_4in_ClimateZone 1-8,  !- Name
  ,                                       !- Surface Rendering Name
  {48a6ba96-c761-4b73-b387-b03eb143a7e2}, !- Layer 1
  {1cd74419-5e55-4d22-96bc-4731702dd26e}; !- Layer 2

OS:Construction,
  {eebddedb-6634-4d68-ada9-4e8220a03014}, !- Handle
  ASHRAE_189.1-2009_ExtWall_SteelFrame_ClimateZone 4-8, !- Name
  ,                                       !- Surface Rendering Name
  {7e25c25d-1319-4e40-8e35-af64581fe2d0}, !- Layer 1
  {738cef80-6824-4a5b-a400-ad493b20146c}, !- Layer 2
  {2638ce9d-f4a1-488b-b3f8-e8fecfd2ace0}; !- Layer 3

OS:Construction,
  {695794c4-ace1-401d-90cb-bc1b6a5fefc2}, !- Handle
  ASHRAE_189.1-2009_ExtRoof_IEAD_ClimateZone 2-5, !- Name
  ,                                       !- Surface Rendering Name
  {2c2950fb-c5cf-4c5c-964e-dfc56ce0a843}, !- Layer 1
  {cfcbc261-2608-42a4-88b8-14b3dde20725}, !- Layer 2
  {293002bf-e058-48dc-8931-ae5888a2d3d1}; !- Layer 3

OS:Construction,
  {43870b5f-d7c7-446f-b04b-5fe6f7de599e}, !- Handle
  000_Interior Floor,                     !- Name
  ,                                       !- Surface Rendering Name
  {924c9c1f-4df8-450e-b990-489a0c8172af}, !- Layer 1
  {bc63ea03-5ded-483c-9cac-b94a06b9b3f6}, !- Layer 2
  {ac155f49-d22b-499f-b141-1914a38d2441}; !- Layer 3

OS:Construction,
  {29c3548c-8929-49f8-8d15-94e5fff7fd91}, !- Handle
  000_Interior Wall,                      !- Name
  ,                                       !- Surface Rendering Name
  {1933b6bc-c225-4777-889b-26d4e590c509}, !- Layer 1
  {531a0cda-e794-422e-8f7f-c4c30b485127}, !- Layer 2
  {1933b6bc-c225-4777-889b-26d4e590c509}; !- Layer 3

OS:Construction,
  {f5a5ab99-e615-4992-9ade-c7f48702bc95}, !- Handle
  000_Interior Ceiling,                   !- Name
  ,                                       !- Surface Rendering Name
  {ac155f49-d22b-499f-b141-1914a38d2441}, !- Layer 1
  {bc63ea03-5ded-483c-9cac-b94a06b9b3f6}, !- Layer 2
  {924c9c1f-4df8-450e-b990-489a0c8172af}; !- Layer 3

OS:Construction,
  {a31d91ff-355d-4dd3-92bd-76bb2305f8a3}, !- Handle
  ASHRAE_189.1-2009_ExtWindow_ClimateZone 4-5, !- Name
  ,                                       !- Surface Rendering Name
  {95e4abbc-d51b-42f6-a977-8f3ad59356d8}; !- Layer 1

OS:Construction,
  {ae96871d-c0f3-4fb8-b0d0-9f84ada51c5f}, !- Handle
  000_Exterior Door,                      !- Name
  ,                                       !- Surface Rendering Name
  {4624b004-0f69-44ee-bda6-01abb6f4482f}, !- Layer 1
  {a22433ef-82b1-43b8-91c0-8dd3df52c6b6}; !- Layer 2

OS:Construction,
  {2356f2b1-53f4-4c71-976b-7b176dad6f30}, !- Handle
  000_Exterior Window,                    !- Name
  ,                                       !- Surface Rendering Name
  {81d35026-b8f1-4e29-ace6-343873a1ddd4}, !- Layer 1
  {0ed08872-f731-4bf7-84e6-b6d4416dacac}, !- Layer 2
  {81d35026-b8f1-4e29-ace6-343873a1ddd4}; !- Layer 3

OS:Construction,
  {36f24a0a-45a4-4f64-8f8b-e550ba1744a5}, !- Handle
  000_Interior Window,                    !- Name
  ,                                       !- Surface Rendering Name
  {81d35026-b8f1-4e29-ace6-343873a1ddd4}; !- Layer 1

OS:Construction,
  {a274c976-985f-4370-8cb5-825485e74099}, !- Handle
  000_Interior Door,                      !- Name
  ,                                       !- Surface Rendering Name
  {d1ae8a67-5c20-4a03-b354-7dc9409b4d23}; !- Layer 1

OS:Material,
  {d1ae8a67-5c20-4a03-b354-7dc9409b4d23}, !- Handle
  000_G05 25mm wood,                      !- Name
  MediumSmooth,                           !- Roughness
  0.025399999999999999,                   !- Thickness {m}
  0.14999999999999999,                    !- Conductivity {W/m-K}
  608,                                    !- Density {kg/m3}
  1630;                                   !- Specific Heat {J/kg-K}

OS:Material,
  {48a6ba96-c761-4b73-b387-b03eb143a7e2}, !- Handle
  MAT-CC05 4 HW CONCRETE,                 !- Name
  Rough,                                  !- Roughness
  0.1016,                                 !- Thickness {m}
  1.3109999999999999,                     !- Conductivity {W/m-K}
  2240,                                   !- Density {kg/m3}
  836.8,                                  !- Specific Heat {J/kg-K}
  0.90000000000000002,                    !- Thermal Absorptance
  0.69999999999999996,                    !- Solar Absorptance
  0.69999999999999996;                    !- Visible Absorptance

OS:Material:NoMass,
  {1cd74419-5e55-4d22-96bc-4731702dd26e}, !- Handle
  CP02 CARPET PAD,                        !- Name
  VeryRough,                              !- Roughness
  0.2165,                                 !- Thermal Resistance {m2-K/W}
  0.90000000000000002,                    !- Thermal Absorptance
  0.69999999999999996,                    !- Solar Absorptance
  0.80000000000000004;                    !- Visible Absorptance

OS:Material:NoMass,
  {7e25c25d-1319-4e40-8e35-af64581fe2d0}, !- Handle
  MAT-SHEATH,                             !- Name
  Rough,                                  !- Roughness
  0.36259999999999998,                    !- Thermal Resistance {m2-K/W}
  0.90000000000000002,                    !- Thermal Absorptance
  0.69999999999999996,                    !- Solar Absorptance
  0.69999999999999996;                    !- Visible Absorptance

OS:Material,
  {738cef80-6824-4a5b-a400-ad493b20146c}, !- Handle
  Wall Insulation [39],                   !- Name
  MediumRough,                            !- Roughness
  0.11840000000000001,                    !- Thickness {m}
  0.044999999999999998,                   !- Conductivity {W/m-K}
  265,                                    !- Density {kg/m3}
  836.8,                                  !- Specific Heat {J/kg-K}
  0.90000000000000002,                    !- Thermal Absorptance
  0.69999999999999996,                    !- Solar Absorptance
  0.69999999999999996;                    !- Visible Absorptance

OS:Material,
  {2638ce9d-f4a1-488b-b3f8-e8fecfd2ace0}, !- Handle
  1/2IN Gypsum,                           !- Name
  Smooth,                                 !- Roughness
  0.012699999999999999,                   !- Thickness {m}
  0.16,                                   !- Conductivity {W/m-K}
  784.89999999999998,                     !- Density {kg/m3}
  830,                                    !- Specific Heat {J/kg-K}
  0.90000000000000002,                    !- Thermal Absorptance
  0.92000000000000004,                    !- Solar Absorptance
  0.92000000000000004;                    !- Visible Absorptance

OS:Material,
  {2c2950fb-c5cf-4c5c-964e-dfc56ce0a843}, !- Handle
  Roof Membrane,                          !- Name
  VeryRough,                              !- Roughness
  0.0094999999999999998,                  !- Thickness {m}
  0.16,                                   !- Conductivity {W/m-K}
  1121.29,                                !- Density {kg/m3}
  1460,                                   !- Specific Heat {J/kg-K}
  0.90000000000000002,                    !- Thermal Absorptance
  0.69999999999999996,                    !- Solar Absorptance
  0.69999999999999996;                    !- Visible Absorptance

OS:Material,
  {cfcbc261-2608-42a4-88b8-14b3dde20725}, !- Handle
  Roof Insulation [21],                   !- Name
  MediumRough,                            !- Roughness
  0.21049999999999999,                    !- Thickness {m}
  0.049000000000000002,                   !- Conductivity {W/m-K}
  265,                                    !- Density {kg/m3}
  836.8,                                  !- Specific Heat {J/kg-K}
  0.90000000000000002,                    !- Thermal Absorptance
  0.69999999999999996,                    !- Solar Absorptance
  0.69999999999999996;                    !- Visible Absorptance

OS:Material,
  {293002bf-e058-48dc-8931-ae5888a2d3d1}, !- Handle
  Metal Decking,                          !- Name
  MediumSmooth,                           !- Roughness