
OS:Version,
  {ed291b7e-d634-4770-9057-b7f8fab664de}, !- Handle
  3.3.0;                                  !- Version Identifier

OS:BuildingStory,
  {561eb337-1197-4487-be81-53d9dff7cd8b}, !- Handle
  Story 1,                                !- Name
  0,                                      !- Nominal Z Coordinate {m}
  4,                                      !- Nominal Floor to Floor Height {m}
  ,                                       !- Default Construction Set Name
  ,                                       !- Default Schedule Set Name
  ;                                       !- Group Rendering Name

OS:Space,
  {13a76fe4-74e2-4876-9daa-f7a481b55900}, !- Handle
  Story 1 Core Space,                     !- Name
  ,                                       !- Space Type Name
  ,                                       !- Default Construction Set Name
  ,                                       !- Default Schedule Set Name
  -0,                                     !- Direction of Relative North {deg}
  0,                                      !- X Origin {m}
  0,                                      !- Y Origin {m}
  0,                                      !- Z Origin {m}
  {561eb337-1197-4487-be81-53d9dff7cd8b}, !- Building Story Name
  {775b15cb-500d-42af-982b-3910334c01b3}; !- Thermal Zone Name

OS:Surface,
  {825f02a6-2c97-4fc9-ab3b-80286e1b2e38}, !- Handle
  Story 1 Core Space Exterior Ground Floor, !- Name
  Floor,                                  !- Surface Type
  ,                                       !- Construction Name
  {13a76fe4-74e2-4876-9daa-f7a481b55900}, !- Space Name
  Ground,                                 !- Outside Boundary Condition
  ,                                       !- Outside Boundary Condition Object
  NoSun,                                  !- Sun Exposure
  NoWind,                                 !- Wind Exposure
  ,                                       !- View Factor to Ground
  ,                                       !- Number of Vertices
  0, 0, 0,                                !- X,Y,Z Vertex 1 {m}
  0, 50, 0,                               !- X,Y,Z Vertex 2 {m}
  100, 50, 0,                             !- X,Y,Z Vertex 3 {m}
  100, 0, 0;                              !- X,Y,Z Vertex 4 {m}

OS:Surface,
  {6710c1b4-03e9-4de1-b826-baee03d3e6bd}, !- Handle
  Story 1 Core Space Exterior Wall 3,     !- Name
  Wall,                                   !- Surface Type
  ,                                       !- Construction Name
  {13a76fe4-74e2-4876-9daa-f7a481b55900}, !- Space Name
  Outdoors,                               !- Outside Boundary Condition
  ,                                       !- Outside Boundary Condition Object
  SunExposed,                             !- Sun Exposure
  WindExposed,                            !- Wind Exposure
  ,                                       !- View Factor to Ground
  ,                                       !- Number of Vertices
  0, 50, 4,                               !- X,Y,Z Vertex 1 {m}
  0, 50, 0,                               !- X,Y,Z Vertex 2 {m}
  0, 0, 0,                                !- X,Y,Z Vertex 3 {m}
  0, 0, 4;                                !- X,Y,Z Vertex 4 {m}

OS:Surface,
  {e55d2769-bb80-4c7c-b1b3-49131ceb858c}, !- Handle
  Story 1 Core Space Exterior Wall 2,     !- Name
  Wall,                                   !- Surface Type
  ,                                       !- Construction Name
  {13a76fe4-74e2-4876-9daa-f7a481b55900}, !- Space Name
  Outdoors,                               !- Outside Boundary Condition
  ,                                       !- Outside Boundary Condition Object
  SunExposed,                             !- Sun Exposure
  WindExposed,                            !- Wind Exposure
  ,                                       !- View Factor to Ground
  ,                                       !- Number of Vertices
  100, 50, 4,                             !- X,Y,Z Vertex 1 {m}
  100, 50, 0,                             !- X,Y,Z Vertex 2 {m}
  0, 50, 0,                               !- X,Y,Z Vertex 3 {m}
  0, 50, 4;                               !- X,Y,Z Vertex 4 {m}

OS:Surface,
  {68b0a26c-704c-4b90-a31f-a3b87781ecf0}, !- Handle
  Story 1 Core Space Exterior Wall 1,     !- Name
  Wall,                                   !- Surface Type
  ,                                       !- Construction Name
  {13a76fe4-74e2-4876-9daa-f7a481b55900}, !- Space Name
  Outdoors,                               !- Outside Boundary Condition
  ,                                       !- Outside Boundary Condition Object
  SunExposed,                             !- Sun Exposure
  WindExposed,                            !- Wind Exposure
  ,                                       !- View Factor to Ground
  ,                                       !- Number of Vertices
  100, 0, 4,                              !- X,Y,Z Vertex 1 {m}
  100, 0, 0,                              !- X,Y,Z Vertex 2 {m}
  100, 50, 0,                             !- X,Y,Z Vertex 3 {m}
  100, 50, 4;                             !- X,Y,Z Vertex 4 {m}

OS:Surface,
  {dc377bbc-a134-4354-89a3-2fd8f81f3d1d}, !- Handle
  Story 1 Core Space Exterior Wall,       !- Name
  Wall,                                   !- Surface Type
  ,                                       !- Construction Name
  {13a76fe4-74e2-4876-9daa-f7a481b55900}, !- Space Name
  Outdoors,                               !- Outside Boundary Condition
  ,                                       !- Outside Boundary Condition Object
  SunExposed,                             !- Sun Exposure
  WindExposed,                            !- Wind Exposure
  ,                                       !- View Factor to Ground
  ,                                       !- Number of Vertices
  0, 0, 4,                                !- X,Y,Z Vertex 1 {m}
  0, 0, 0,                                !- X,Y,Z Vertex 2 {m}
  100, 0, 0,                              !- X,Y,Z Vertex 3 {m}
  100, 0, 4;                              !- X,Y,Z Vertex 4 {m}

OS:Surface,
  {5dc1bda7-e158-4685-b8af-46f9976b51b8}, !- Handle
  Story 1 Core Space Exterior Roof,       !- Name
  RoofCeiling,                            !- Surface Type
  ,                                       !- Construction Name
  {13a76fe4-74e2-4876-9daa-f7a481b55900}, !- Space Name
  Outdoors,                               !- Outside Boundary Condition
  ,                                       !- Outside Boundary Condition Object
  SunExposed,                             !- Sun Exposure
  WindExposed,                            !- Wind Exposure
  ,                                       !- View Factor to Ground
  ,                                       !- Number of Vertices
  100, 0, 4,                              !- X,Y,Z Vertex 1 {m}
  100, 50, 4,                             !- X,Y,Z Vertex 2 {m}
  0, 50, 4,                               !- X,Y,Z Vertex 3 {m}
  0, 0, 4;                                !- X,Y,Z Vertex 4 {m}

OS:ThermalZone,
  {775b15cb-500d-42af-982b-3910334c01b3}, !- Handle
  Story 1 Core Thermal Zone,              !- Name
  ,                                       !- Multiplier
  ,                                       !- Ceiling Height {m}
  ,                                       !- Volume {m3}
  ,                                       !- Floor Area {m2}
  ,                                       !- Zone Inside Convection Algorithm
  ,                                       !- Zone Outside Convection Algorithm
  ,                                       !- Zone Conditioning Equipment List Name
  {80be1630-d504-4cc1-9add-c2cb6c9d6f45}, !- Zone Air Inlet Port List
  {1b161939-a617-4ec5-9e71-bd867ea10ce6}, !- Zone Air Exhaust Port List
  {8cb1cdff-1df7-4bb0-aad0-8d3f168e0736}, !- Zone Air Node Name
  {132414fc-0ebd-41a7-a1e8-a7eb1a3fa3d7}, !- Zone Return Air Port List
  ,                                       !- Primary Daylighting Control Name
  ,                                       !- Fraction of Zone Controlled by Primary Daylighting Control
  ,                                       !- Secondary Daylighting Control Name
  ,                                       !- Fraction of Zone Controlled by Secondary Daylighting Control
  ,                                       !- Illuminance Map Name
  ,                                       !- Group Rendering Name
  {5e722c94-9b9f-4231-92df-64039ad1e562}, !- Thermostat Name
  Yes;                                    !- Use Ideal Air Loads

OS:Node,
  {85741b52-6b62-4867-aee8-c5b491e9bf04}, !- Handle
  Node 1,                                 !- Name
  {8cb1cdff-1df7-4bb0-aad0-8d3f168e0736}, !- Inlet Port
  ;                                       !- Outlet Port

OS:Connection,
  {8cb1cdff-1df7-4bb0-aad0-8d3f168e0736}, !- Handle
  {775b15cb-500d-42af-982b-3910334c01b3}, !- Source Object
  11,                                     !- Outlet Port
  {85741b52-6b62-4867-aee8-c5b491e9bf04}, !- Target Object
  2;                                      !- Inlet Port

OS:PortList,
  {80be1630-d504-4cc1-9add-c2cb6c9d6f45}, !- Handle
  {775b15cb-500d-42af-982b-3910334c01b3}; !- HVAC Component

OS:PortList,
  {1b161939-a617-4ec5-9e71-bd867ea10ce6}, !- Handle
  {775b15cb-500d-42af-982b-3910334c01b3}; !- HVAC Component

OS:PortList,
  {132414fc-0ebd-41a7-a1e8-a7eb1a3fa3d7}, !- Handle
  {775b15cb-500d-42af-982b-3910334c01b3}; !- HVAC Component

OS:Sizing:Zone,
  {bf9e7f95-bfe9-404f-a7ea-64d2b9b1209d}, !- Handle
  {775b15cb-500d-42af-982b-3910334c01b3}, !- Zone or ZoneList Name
  SupplyAirTemperature,                   !- Zone Cooling Design Supply Air Temperature Input Method
  14,                                     !- Zone Cooling Design Supply Air Temperature {C}
  11.11,                                  !- Zone Cooling Design Supply Air Temperature Difference {deltaC}
  SupplyAirTemperature,                   !- Zone Heating Design Supply Air Temperature Input Method
  40,                                     !- Zone Heating Design Supply Air Temperature {C}
  11.11,                                  !- Zone Heating Design Supply Air Temperature Difference {deltaC}
  0.0085,                                 !- Zone Cooling Design Supply Air Humidity Ratio {kg-H2O/kg-air}
  0.008,                                  !- Zone Heating Design Supply Air Humidity Ratio {kg-H2O/kg-air}
  ,                                       !- Zone Heating Sizing Factor
  ,                                       !- Zone Cooling Sizing Factor
  DesignDay,                              !- Cooling Design Air Flow Method
  ,                                       !- Cooling Design Air Flow Rate {m3/s}
  ,                                       !- Cooling Minimum Air Flow per Zone Floor Area {m3/s-m2}
  ,                                       !- Cooling Minimum Air Flow {m3/s}
  ,                                       !- Cooling Minimum Air Flow Fraction
  DesignDay,                              !- Heating Design Air Flow Method
  ,                                       !- Heating Design Air Flow Rate {m3/s}
  ,                                       !- Heating Maximum Air Flow per Zone Floor Area {m3/s-m2}
  ,                                       !- Heating Maximum Air Flow {m3/s}
  ,                                       !- Heating Maximum Air Flow Fraction
  No,                                     !- Account for Dedicated Outdoor Air System
  NeutralSupplyAir,                       !- Dedicated Outdoor Air System Control Strategy
  autosize,                               !- Dedicated Outdoor Air Low Setpoint Temperature for Design {C}
  autosize;                               !- Dedicated Outdoor Air High Setpoint Temperature for Design {C}

OS:ZoneHVAC:EquipmentList,
  {3a0de9c8-ae2c-4ddc-a171-3d26f7f1d65e}, !- Handle
  Zone HVAC Equipment List 1,             !- Name
  {775b15cb-500d-42af-982b-3910334c01b3}; !- Thermal Zone

OS:SubSurface,
  {c83fc235-fb7c-49e1-a35e-fd3002429646}, !- Handle
  Story 1 Core Space Exterior Wall 1 Window, !- Name
  FixedWindow,                            !- Sub Surface Type
  ,                                       !- Construction Name
  {68b0a26c-704c-4b90-a31f-a3b87781ecf0}, !- Surface Name
  ,                                       !- Outside Boundary Condition Object
  ,                                       !- View Factor to Ground
  ,                                       !- Frame and Divider Name
  ,                                       !- Multiplier
  ,                                       !- Number of Vertices
  100, 0.0254, 2.60162725328934,          !- X,Y,Z Vertex 1 {m}
  100, 0.0254, 1,                         !- X,Y,Z Vertex 2 {m}
  100, 49.9746, 1,                        !- X,Y,Z Vertex 3 {m}
  100, 49.9746, 2.60162725328934;         !- X,Y,Z Vertex 4 {m}

OS:SubSurface,
  {9f957c06-bfac-4d0d-8441-f58a78b12aeb}, !- Handle
  Story 1 Core Space Exterior Wall 2 Window, !- Name
  FixedWindow,                            !- Sub Surface Type
  ,                                       !- Construction Name
  {e55d2769-bb80-4c7c-b1b3-49131ceb858c}, !- Surface Name
  ,                                       !- Outside Boundary Condition Object
  ,                                       !- View Factor to Ground
  ,                                       !- Frame and Divider Name
  ,                                       !- Multiplier
  ,                                       !- Number of Vertices
  99.9746, 50, 2.60081321311226,          !- X,Y,Z Vertex 1 {m}
  99.9746, 50, 1,                         !- X,Y,Z Vertex 2 {m}
  0.0253999999999905, 50, 1,              !- X,Y,Z Vertex 3 {m}
  0.0253999999999905, 50, 2.60081321311226; !- X,Y,Z Vertex 4 {m}

OS:SubSurface,
  {f6bb95e1-3fa0-473b-9f67-1471b76c213e}, !- Handle
  Story 1 Core Space Exterior Wall Window, !- Name
  FixedWindow,                            !- Sub Surface Type
  ,                                       !- Construction Name
  {dc377bbc-a134-4354-89a3-2fd8f81f3d1d}, !- Surface Name
  ,                                       !- Outside Boundary Condition Object
  ,                                       !- View Factor to Ground
  ,                                       !- Frame and Divider Name
  ,                                       !- Multiplier
  ,                                       !- Number of Vertices
  0.0254, 0, 2.60081321311226,            !- X,Y,Z Vertex 1 {m}
  0.0254, 0, 1,                           !- X,Y,Z Vertex 2 {m}
  99.9746, 0, 1,                          !- X,Y,Z Vertex 3 {m}
  99.9746, 0, 2.60081321311226;           !- X,Y,Z Vertex 4 {m}

OS:SubSurface,
  {1ffb2dc2-9986-48d4-81b3-c3548abc1dba}, !- Handle
  Story 1 Core Space Exterior Wall 3 Window, !- Name
  FixedWindow,                            !- Sub Surface Type
  ,                                       !- Construction Name
  {6710c1b4-03e9-4de1-b826-baee03d3e6bd}, !- Surface Name
  ,                                       !- Outside Boundary Condition Object
  ,                                       !- View Factor to Ground
  ,                                       !- Frame and Divider Name
  ,                                       !- Multiplier
  ,                                       !- Number of Vertices
  0, 49.9746, 2.60162725328934,           !- X,Y,Z Vertex 1 {m}
  0, 49.9746, 1,                          !- X,Y,Z Vertex 2 {m}
  0, 0.0254000000000048, 1,               !- X,Y,Z Vertex 3 {m}
  0, 0.0254000000000048, 2.60162725328934; !- X,Y,Z Vertex 4 {m}

OS:Schedule:Ruleset,
  {eb18ea5f-03ff-4754-8133-21bb00428ebb}, !- Handle
  Cooling Sch,                            !- Name
  {f59d0c09-ea8a-4d92-a055-a2fb8b9434c8}, !- Schedule Type Limits Name
  {bd2632e6-e778-481d-98df-8a771df0ff92}; !- Default Day Schedule Name

OS:Schedule:Day,
  {bd2632e6-e778-481d-98df-8a771df0ff92}, !- Handle
  Cooling Sch Default,                    !- Name
  {f59d0c09-ea8a-4d92-a055-a2fb8b9434c8}, !- Schedule Type Limits Name
  ,                                       !- Interpolate to Timestep
  24,                                     !- Hour 1
  0,                                      !- Minute 1
  28;                                     !- Value Until Time 1

OS:Schedule:Ruleset,
  {c96a7005-6aa9-4885-9053-e239361eac9e}, !- Handle
  Heating Sch,                            !- Name
  {f59d0c09-ea8a-4d92-a055-a2fb8b9434c8}, !- Schedule Type Limits Name
  {2ba62e80-9352-45a7-8af1-604efdddd328}; !- Default Day Schedule Name

OS:Schedule:Day,
  {2ba62e80-9352-45a7-8af1-604efdddd328}, !- Handle
  Heating Sch Default,                    !- Name
  {f59d0c09-ea8a-4d92-a055-a2fb8b9434c8}, !- Schedule Type Limits Name
  ,                                       !- Interpolate to Timestep
  24,                                     !- Hour 1
  0,                                      !- Minute 1
  24;                                     !- Value Until Time 1

OS:ThermostatSetpoint:DualSetpoint,
  {5e722c94-9b9f-4231-92df-64039ad1e562}, !- Handle
  Thermostat Setpoint Dual Setpoint 1,    !- Name
  {c96a7005-6aa9-4885-9053-e239361eac9e}, !- Heating Setpoint Temperature Schedule Name
  {eb18ea5f-03ff-4754-8133-21bb00428ebb}; !- Cooling Setpoint Temperature Schedule Name

OS:ScheduleTypeLimits,
  {f59d0c09-ea8a-4d92-a055-a2fb8b9434c8}, !- Handle
  Temperature,                            !- Name
  ,                                       !- Lower Limit Value
  ,                                       !- Upper Limit Value
  Continuous,                             !- Numeric Type
  Temperature;                            !- Unit Type

OS:DefaultConstructionSet,
  {7ee864ab-1a6f-4f2e-9acc-15307f5abdab}, !- Handle
  ASHRAE_189.1-2009_ClimateZone 4-5 (mdoff)_ConstSet, !- Name
  {74d8a8c1-7e33-4602-8bac-8165542c8e1a}, !- Default Exterior Surface Constructions Name
  {ca502505-ca6f-4304-a0f5-3607554eb3e7}, !- Default Interior Surface Constructions Name
  {8eed8b34-428f-4307-8083-02ebd37d63f8}, !- Default Ground Contact Surface Constructions Name
  {4dd86835-f94a-46f9-a535-8e6798084ffd}, !- Default Exterior SubSurface Constructions Name
  {fb815317-2af6-4e83-a229-ab3a746bfd59}, !- Default Interior SubSurface Constructions Name
  {c3879dee-0d65-459c-8443-ec19a50caebf}, !- Interior Partition Construction Name
  ,                                       !- Space Shading Construction Name
  ,                                       !- Building Shading Construction Name
  ,                                       !- Site Shading Construction Name
  ;                                       !- Adiabatic Surface Construction Name

OS:DefaultSurfaceConstructions,
  {74d8a8c1-7e33-4602-8bac-8165542c8e1a}, !- Handle
  ASHRAE_189.1-2009_ClimateZone 4-5 (mdoff)_Exterior_DefSurfCons, !- Name
  {ba3399db-8188-49f9-838b-59b2e4826efe}, !- Floor Construction Name
  {a08a6407-2e2d-4088-b635-7a8e2b91bd68}, !- Wall Construction Name
  {07ab1089-794e-465b-be02-dfd49b10b102}; !- Roof Ceiling Construction Name

OS:DefaultSurfaceConstructions,
  {ca502505-ca6f-4304-a0f5-3607554eb3e7}, !- Handle
  000_Interior_DefSurfCons,               !- Name
  {81292197-15b3-477d-a860-6f5fcf006f99}, !- Floor Construction Name
  {e1985da0-d128-4511-be1b-569caf80ddc1}, !- Wall Construction Name
  {c9ea42ce-1027-487e-8e10-bb9673f9e51b}; !- Roof Ceiling Construction Name

OS:DefaultSurfaceConstructions,
  {8eed8b34-428f-4307-8083-02ebd37d63f8}, !- Handle
  000_Ground_DefSurfCons,                 !- Name
  {ba3399db-8188-49f9-838b-59b2e4826efe}, !- Floor Construction Name
  {ba3399db-8188-49f9-838b-59b2e4826efe}, !- Wall Construction Name
  {ba3399db-8188-49f9-838b-59b2e4826efe}; !- Roof Ceiling Construction Name

OS:DefaultSubSurfaceConstructions,
  {4dd86835-f94a-46f9-a535-8e6798084ffd}, !- Handle
  ASHRAE_189.1-2009_ClimateZone 4-5 (mdoff)_Exterior_DefSubCons, !- Name
  {3690e790-57c1-400e-af9f-c3a1aba150e7}, !- Fixed Window Construction Name
  {3690e790-57c1-400e-af9f-c3a1aba150e7}, !- Operable Window Construction Name
  {6d1184e7-bd76-4884-b918-a31d0cb5f22e}, !- Door Construction Name
  {bf354ad1-3ccb-4ac5-9adb-335696f72693}, !- Glass Door Construction Name
  ,                                       !- Overhead Door Construction Name
  {bf354ad1-3ccb-4ac5-9adb-335696f72693}, !- Skylight Construction Name
  {f884867d-201a-4b8e-adfe-33281db45941}, !- Tubular Daylight Dome Construction Name
  {f884867d-201a-4b8e-adfe-33281db45941}; !- Tubular Daylight Diffuser Construction Name

OS:DefaultSubSurfaceConstructions,
  {fb815317-2af6-4e83-a229-ab3a746bfd59}, !- Handle
  000_Interior_DefSubCons,                !- Name
  {f884867d-201a-4b8e-adfe-33281db45941}, !- Fixed Window Construction Name
  {f884867d-201a-4b8e-adfe-33281db45941}, !- Operable Window Construction Name
  {a9e61b8b-3bbb-4106-8407-69d8ddda99cb}, !- Door Construction Name
  {bf354ad1-3ccb-4ac5-9adb-335696f72693}, !- Glass Door Construction Name
  ,                                       !- Overhead Door Construction Name
  {bf354ad1-3ccb-4ac5-9adb-335696f72693}, !- Skylight Construction Name
  {f884867d-201a-4b8e-adfe-33281db45941}, !- Tubular Daylight Dome Construction Name
  {f884867d-201a-4b8e-adfe-33281db45941}; !- Tubular Daylight Diffuser Construction Name

OS:Construction,
  {c3879dee-0d65-459c-8443-ec19a50caebf}, !- Handle
  000_Interior Partition,                 !- Name
  ,                                       !- Surface Rendering Name
  {f5311fde-a1ca-4db9-8907-9c71f77c4393}; !- Layer 1

OS:Construction,
  {ba3399db-8188-49f9-838b-59b2e4826efe}, !- Handle
  000_ExtSlabCarpet_4in_ClimateZone 1-8,  !- Name
  ,                                       !- Surface Rendering Name
  {2c9281a0-b2da-47a4-b0e8-39478b4a3ff5}, !- Layer 1
  {29a621cd-3db2-4654-a5db-292800fbb484}; !- Layer 2

OS:Construction,
  {a08a6407-2e2d-4088-b635-7a8e2b91bd68}, !- Handle
  ASHRAE_189.1-2009_ExtWall_SteelFrame_ClimateZone 4-8, !- Name
  ,                                       !- Surface Rendering Name
  {1688df1a-aa0e-460c-be1a-c8d66eb62515}, !- Layer 1
  {3ca6016a-fdcf-49c6-b53a-ffc6a46e906d}, !- Layer 2
  {698c81f4-c2db-4609-b607-5a35725b19a0}; !- Layer 3

OS:Construction,
  {07ab1089-794e-465b-be02-dfd49b10b102}, !- Handle
  ASHRAE_189.1-2009_ExtRoof_IEAD_ClimateZone 2-5, !- Name
  ,                                       !- Surface Rendering Name
  {206e789b-36a5-4441-8d63-ed3d6eb4fc9a}, !- Layer 1
  {a07bf4e7-f55b-4059-a763-21e5c42f8073}, !- Layer 2
  {9a3787f7-35ee-4a8b-8bb8-5e1c2647832c}; !- Layer 3

OS:Construction,
  {81292197-15b3-477d-a860-6f5fcf006f99}, !- Handle
  000_Interior Floor,                     !- Name
  ,                                       !- Surface Rendering Name
  {712dc611-1993-410a-ada0-b60a9dafa4a1}, !- Layer 1
  {df6c8654-e6a1-49a3-a5ef-eb45af8f6867}, !- Layer 2
  {25fd2f2c-b5c7-4362-81d0-0275158805e9}; !- Layer 3

OS:Construction,
  {e1985da0-d128-4511-be1b-569caf80ddc1}, !- Handle
  000_Interior Wall,                      !- Name
  ,                                       !- Surface Rendering Name
  {c376ef05-1b8c-4672-b522-76ac879ec049}, !- Layer 1
  {17eb3d84-b976-4d79-a756-7777272dbb48}, !- Layer 2
  {c376ef05-1b8c-4672-b522-76ac879ec049}; !- Layer 3

OS:Construction,
  {c9ea42ce-1027-487e-8e10-bb9673f9e51b}, !- Handle
  000_Interior Ceiling,                   !- Name
  ,                                       !- Surface Rendering Name
  {25fd2f2c-b5c7-4362-81d0-0275158805e9}, !- Layer 1
  {df6c8654-e6a1-49a3-a5ef-eb45af8f6867}, !- Layer 2
  {712dc611-1993-410a-ada0-b60a9dafa4a1}; !- Layer 3

OS:Construction,
  {3690e790-57c1-400e-af9f-c3a1aba150e7}, !- Handle
  ASHRAE_189.1-2009_ExtWindow_ClimateZone 4-5, !- Name
  ,                                       !- Surface Rendering Name
  {31bcb98f-cc81-4272-bf7c-4d31934d035c}; !- Layer 1

OS:Construction,
  {6d1184e7-bd76-4884-b918-a31d0cb5f22e}, !- Handle
  000_Exterior Door,                      !- Name
  ,                                       !- Surface Rendering Name
  {03ecd57d-1d03-4a42-92fc-ca51d4bef8d6}, !- Layer 1
  {fdfb8e78-061d-4cca-8e67-0bf829d99673}; !- Layer 2

OS:Construction,
  {bf354ad1-3ccb-4ac5-9adb-335696f72693}, !- Handle
  000_Exterior Window,                    !- Name
  ,                                       !- Surface Rendering Name
  {eb9bd7d5-8b91-4d67-ac7a-1552eb8bc41e}, !- Layer 1
  {d9bc53dd-9e4f-4b3c-aa27-112dc504254e}, !- Layer 2
  {eb9bd7d5-8b91-4d67-ac7a-1552eb8bc41e}; !- Layer 3

OS:Construction,
  {f884867d-201a-4b8e-adfe-33281db45941}, !- Handle
  000_Interior Window,                    !- Name
  ,                                       !- Surface Rendering Name
  {eb9bd7d5-8b91-4d67-ac7a-1552eb8bc41e}; !- Layer 1

OS:Construction,
  {a9e61b8b-3bbb-4106-8407-69d8ddda99cb}, !- Handle
  000_Interior Door,                      !- Name
  ,                                       !- Surface Rendering Name
  {f5311fde-a1ca-4db9-8907-9c71f77c4393}; !- Layer 1

OS:Material,
  {f5311fde-a1ca-4db9-8907-9c71f77c4393}, !- Handle
  000_G05 25mm wood,                      !- Name
  MediumSmooth,                           !- Roughness
  0.025399999999999999,                   !- Thickness {m}
  0.14999999999999999,                    !- Conductivity {W/m-K}
  608,                                    !- Density {kg/m3}
  1630;                                   !- Specific Heat {J/kg-K}

OS:Material,
  {2c9281a0-b2da-47a4-b0e8-39478b4a3ff5}, !- Handle
  MAT-CC05 4 HW CONCRETE,                 !- Name
  Rough,                                  !- Roughness
  0.1016,                                 !- Thickness {m}
  1.3109999999999999,                     !- Conductivity {W/m-K}
  2240,                                   !- Density {kg/m3}
  836.8,                                  !- Specific Heat {J/kg-K}
  0.90000000000000002,                    !- Thermal Absorptance
  0.69999999999999996,                    !- Solar Absorptance
  0.69999999999999996;                    !- Visible Absorptance

OS:Material:NoMass,
  {29a621cd-3db2-4654-a5db-292800fbb484}, !- Handle
  CP02 CARPET PAD,                        !- Name
  VeryRough,                              !- Roughness
  0.2165,                                 !- Thermal Resistance {m2-K/W}
  0.90000000000000002,                    !- Thermal Absorptance
  0.69999999999999996,                    !- Solar Absorptance
  0.80000000000000004;                    !- Visible Absorptance

OS:Material:NoMass,
  {1688df1a-aa0e-460c-be1a-c8d66eb62515}, !- Handle
  MAT-SHEATH,                             !- Name
  Rough,                                  !- Roughness
  0.36259999999999998,                    !- Thermal Resistance {m2-K/W}
  0.90000000000000002,                    !- Thermal Absorptance
  0.69999999999999996,                    !- Solar Absorptance
  0.69999999999999996;                    !- Visible Absorptance

OS:Material,
  {3ca6016a-fdcf-49c6-b53a-ffc6a46e906d}, !- Handle
  Wall Insulation [39],                   !- Name
  MediumRough,                            !- Roughness
  0.11840000000000001,                    !- Thickness {m}
  0.044999999999999998,                   !- Conductivity {W/m-K}
  265,                                    !- Density {kg/m3}
  836.8,                                  !- Specific Heat {J/kg-K}
  0.90000000000000002,                    !- Thermal Absorptance
  0.69999999999999996,                    !- Solar Absorptance
  0.69999999999999996;                    !- Visible Absorptance

OS:Material,
  {698c81f4-c2db-4609-b607-5a35725b19a0}, !- Handle
  1/2IN Gypsum,                           !- Name
  Smooth,                                 !- Roughness
  0.012699999999999999,                   !- Thickness {m}
  0.16,                                   !- Conductivity {W/m-K}
  784.89999999999998,                     !- Density {kg/m3}
  830,                                    !- Specific Heat {J/kg-K}
  0.90000000000000002,                    !- Thermal Absorptance
  0.92000000000000004,                    !- Solar Absorptance
  0.92000000000000004;                    !- Visible Absorptance

OS:Material,
  {206e789b-36a5-4441-8d63-ed3d6eb4fc9a}, !- Handle
  Roof Membrane,                          !- Name
  VeryRough,                              !- Roughness
  0.0094999999999999998,                  !- Thickness {m}
  0.16,                                   !- Conductivity {W/m-K}
  1121.29,                                !- Density {kg/m3}
  1460,                                   !- Specific Heat {J/kg-K}
  0.90000000000000002,                    !- Thermal Absorptance
  0.69999999999999996,                    !- Solar Absorptance
  0.69999999999999996;                    !- Visible Absorptance

OS:Material,
  {a07bf4e7-f55b-4059-a763-21e5c42f8073}, !- Handle
  Roof Insulation [21],                   !- Name
  MediumRough,                            !- Roughness
  0.21049999999999999,                    !- Thickness {m}
  0.049000000000000002,                   !- Conductivity {W/m-K}
  265,                                    !- Density {kg/m3}
  836.8,                                  !- Specific Heat {J/kg-K}
  0.90000000000000002,                    !- Thermal Absorptance
  0.69999999999999996,                    !- Solar Absorptance
  0.69999999999999996;                    !- Visible Absorptance

OS:Material,
  {9a3787f7-35ee-4a8b-8bb8-5e1c2647832c}, !- Handle
  Metal Decking,                          !- Name
  MediumSmooth,                           !- Roughness
  0.0015,                                 !- Thickness {m}
  45.006,                                 !- Conductivity {W/m-K}
  7680,                                   !- Density {kg/m3}
  418.4,                                  !- Specific Heat {J/kg-K}
  0.90000000000000002,                    !- Thermal Absorptance
  0.69999999999999996,                    !- Solar Absorptance
  0.29999999999999999;                    !- Visible Absorptance

OS:Material,
  {712dc611-1993-410a-ada0-b60a9dafa4a1}, !- Handle
  000_F16 Acoustic tile,                  !- Name