
OS:Version,
  {1a699382-7441-454c-a44f-5297b7b6bf1f}, !- Handle
  3.3.0;                                  !- Version Identifier

OS:BuildingStory,
  {eaf02080-883f-4540-a2ab-99cdcad50d95}, !- Handle
  Story 1,                                !- Name
  0,                                      !- Nominal Z Coordinate {m}
  4,                                      !- Nominal Floor to Floor Height {m}
  ,                                       !- Default Construction Set Name
  ,                                       !- Default Schedule Set Name
  ;                                       !- Group Rendering Name

OS:Space,
  {3b69cad2-c82a-40fc-987a-152e9dd921e9}, !- Handle
  Story 1 Core Space,                     !- Name
  ,                                       !- Space Type Name
  ,                                       !- Default Construction Set Name
  ,                                       !- Default Schedule Set Name
  -0,                                     !- Direction of Relative North {deg}
  0,                                      !- X Origin {m}
  0,                                      !- Y Origin {m}
  0,                                      !- Z Origin {m}
  {eaf02080-883f-4540-a2ab-99cdcad50d95}, !- Building Story Name
  {70fe81fd-405a-466f-b29f-4ae40cc21f57}; !- Thermal Zone Name

OS:Surface,
  {f5e0841a-d7a3-426b-808c-b4910d892b01}, !- Handle
  Story 1 Core Space Exterior Ground Floor, !- Name
  Floor,                                  !- Surface Type
  ,                                       !- Construction Name
  {3b69cad2-c82a-40fc-987a-152e9dd921e9}, !- Space Name
  Ground,                                 !- Outside Boundary Condition
  ,                                       !- Outside Boundary Condition Object
  NoSun,                                  !- Sun Exposure
  NoWind,                                 !- Wind Exposure
  ,                                       !- View Factor to Ground
  ,                                       !- Number of Vertices
  0, 0, 0,                                !- X,Y,Z Vertex 1 {m}
  0, 50, 0,                               !- X,Y,Z Vertex 2 {m}
  100, 50, 0,                             !- X,Y,Z Vertex 3 {m}
  100, 0, 0;                              !- X,Y,Z Vertex 4 {m}

OS:Surface,
  {67cb9c26-278a-40f9-b384-0dcc47bfd0cf}, !- Handle
  Story 1 Core Space Exterior Wall 3,     !- Name
  Wall,                                   !- Surface Type
  ,                                       !- Construction Name
  {3b69cad2-c82a-40fc-987a-152e9dd921e9}, !- Space Name
  Outdoors,                               !- Outside Boundary Condition
  ,                                       !- Outside Boundary Condition Object
  SunExposed,                             !- Sun Exposure
  WindExposed,                            !- Wind Exposure
  ,                                       !- View Factor to Ground
  ,                                       !- Number of Vertices
  0, 50, 4,                               !- X,Y,Z Vertex 1 {m}
  0, 50, 0,                               !- X,Y,Z Vertex 2 {m}
  0, 0, 0,                                !- X,Y,Z Vertex 3 {m}
  0, 0, 4;                                !- X,Y,Z Vertex 4 {m}

OS:Surface,
  {2fabbcba-ac3e-4dfe-b14a-64a0d99c195e}, !- Handle
  Story 1 Core Space Exterior Wall 2,     !- Name
  Wall,                                   !- Surface Type
  ,                                       !- Construction Name
  {3b69cad2-c82a-40fc-987a-152e9dd921e9}, !- Space Name
  Outdoors,                               !- Outside Boundary Condition
  ,                                       !- Outside Boundary Condition Object
  SunExposed,                             !- Sun Exposure
  WindExposed,                            !- Wind Exposure
  ,                                       !- View Factor to Ground
  ,                                       !- Number of Vertices
  100, 50, 4,                             !- X,Y,Z Vertex 1 {m}
  100, 50, 0,                             !- X,Y,Z Vertex 2 {m}
  0, 50, 0,                               !- X,Y,Z Vertex 3 {m}
  0, 50, 4;                               !- X,Y,Z Vertex 4 {m}

OS:Surface,
  {aa98ab42-4723-4761-aa5a-c68142281b65}, !- Handle
  Story 1 Core Space Exterior Wall,       !- Name
  Wall,                                   !- Surface Type
  ,                                       !- Construction Name
  {3b69cad2-c82a-40fc-987a-152e9dd921e9}, !- Space Name
  Outdoors,                               !- Outside Boundary Condition
  ,                                       !- Outside Boundary Condition Object
  SunExposed,                             !- Sun Exposure
  WindExposed,                            !- Wind Exposure
  ,                                       !- View Factor to Ground
  ,                                       !- Number of Vertices
  100, 0, 4,                              !- X,Y,Z Vertex 1 {m}
  100, 0, 0,                              !- X,Y,Z Vertex 2 {m}
  100, 50, 0,                             !- X,Y,Z Vertex 3 {m}
  100, 50, 4;                             !- X,Y,Z Vertex 4 {m}

OS:Surface,
  {1656dd1b-dfe4-4f41-983d-0c546195ed7b}, !- Handle
  Story 1 Core Space Exterior Wall 1,     !- Name
  Wall,                                   !- Surface Type
  ,                                       !- Construction Name
  {3b69cad2-c82a-40fc-987a-152e9dd921e9}, !- Space Name
  Outdoors,                               !- Outside Boundary Condition
  ,                                       !- Outside Boundary Condition Object
  SunExposed,                             !- Sun Exposure
  WindExposed,                            !- Wind Exposure
  ,                                       !- View Factor to Ground
  ,                                       !- Number of Vertices
  0, 0, 4,                                !- X,Y,Z Vertex 1 {m}
  0, 0, 0,                                !- X,Y,Z Vertex 2 {m}
  100, 0, 0,                              !- X,Y,Z Vertex 3 {m}
  100, 0, 4;                              !- X,Y,Z Vertex 4 {m}

OS:Surface,
  {f1fbd113-1928-4eb8-ab95-1fab3c0246a0}, !- Handle
  Story 1 Core Space Exterior Roof,       !- Name
  RoofCeiling,                            !- Surface Type
  ,                                       !- Construction Name
  {3b69cad2-c82a-40fc-987a-152e9dd921e9}, !- Space Name
  Outdoors,                               !- Outside Boundary Condition
  ,                                       !- Outside Boundary Condition Object
  SunExposed,                             !- Sun Exposure
  WindExposed,                            !- Wind Exposure
  ,                                       !- View Factor to Ground
  ,                                       !- Number of Vertices
  100, 0, 4,                              !- X,Y,Z Vertex 1 {m}
  100, 50, 4,                             !- X,Y,Z Vertex 2 {m}
  0, 50, 4,                               !- X,Y,Z Vertex 3 {m}
  0, 0, 4;                                !- X,Y,Z Vertex 4 {m}

OS:ThermalZone,
  {70fe81fd-405a-466f-b29f-4ae40cc21f57}, !- Handle
  Story 1 Core Thermal Zone,              !- Name
  ,                                       !- Multiplier
  ,                                       !- Ceiling Height {m}
  ,                                       !- Volume {m3}
  ,                                       !- Floor Area {m2}
  ,                                       !- Zone Inside Convection Algorithm
  ,                                       !- Zone Outside Convection Algorithm
  ,                                       !- Zone Conditioning Equipment List Name
  {cb7fe42d-06bb-47fc-bfc1-fdd3b14526a3}, !- Zone Air Inlet Port List
  {afccbb5d-f2a0-4422-a8ff-4f8ae510c623}, !- Zone Air Exhaust Port List
  {7fd04c1e-f8fb-42ab-912b-33bf0e727175}, !- Zone Air Node Name
  {9925c95a-c359-48d5-a765-8f9377bd85df}, !- Zone Return Air Port List
  ,                                       !- Primary Daylighting Control Name
  ,                                       !- Fraction of Zone Controlled by Primary Daylighting Control
  ,                                       !- Secondary Daylighting Control Name
  ,                                       !- Fraction of Zone Controlled by Secondary Daylighting Control
  ,                                       !- Illuminance Map Name
  ,                                       !- Group Rendering Name
  {243b3bec-85d9-4fa0-a77e-95d2493a7f31}, !- Thermostat Name
  No;                                     !- Use Ideal Air Loads

OS:Node,
  {e89af36f-ce7d-4842-afb9-d6b8bab1085a}, !- Handle
  Node 1,                                 !- Name
  {7fd04c1e-f8fb-42ab-912b-33bf0e727175}, !- Inlet Port
  ;                                       !- Outlet Port

OS:Connection,
  {7fd04c1e-f8fb-42ab-912b-33bf0e727175}, !- Handle
  {70fe81fd-405a-466f-b29f-4ae40cc21f57}, !- Source Object
  11,                                     !- Outlet Port
  {e89af36f-ce7d-4842-afb9-d6b8bab1085a}, !- Target Object
  2;                                      !- Inlet Port

OS:PortList,
  {cb7fe42d-06bb-47fc-bfc1-fdd3b14526a3}, !- Handle
  {70fe81fd-405a-466f-b29f-4ae40cc21f57}; !- HVAC Component

OS:PortList,
  {afccbb5d-f2a0-4422-a8ff-4f8ae510c623}, !- Handle
  {70fe81fd-405a-466f-b29f-4ae40cc21f57}; !- HVAC Component

OS:PortList,
  {9925c95a-c359-48d5-a765-8f9377bd85df}, !- Handle
  {70fe81fd-405a-466f-b29f-4ae40cc21f57}; !- HVAC Component

OS:Sizing:Zone,
  {d1f0edf5-ca41-4c61-8a19-515d2dcb38e7}, !- Handle
  {70fe81fd-405a-466f-b29f-4ae40cc21f57}, !- Zone or ZoneList Name
  SupplyAirTemperature,                   !- Zone Cooling Design Supply Air Temperature Input Method
  14,                                     !- Zone Cooling Design Supply Air Temperature {C}
  11.11,                                  !- Zone Cooling Design Supply Air Temperature Difference {deltaC}
  SupplyAirTemperature,                   !- Zone Heating Design Supply Air Temperature Input Method
  40,                                     !- Zone Heating Design Supply Air Temperature {C}
  11.11,                                  !- Zone Heating Design Supply Air Temperature Difference {deltaC}
  0.0085,                                 !- Zone Cooling Design Supply Air Humidity Ratio {kg-H2O/kg-air}
  0.008,                                  !- Zone Heating Design Supply Air Humidity Ratio {kg-H2O/kg-air}
  ,                                       !- Zone Heating Sizing Factor
  ,                                       !- Zone Cooling Sizing Factor
  DesignDay,                              !- Cooling Design Air Flow Method
  ,                                       !- Cooling Design Air Flow Rate {m3/s}
  ,                                       !- Cooling Minimum Air Flow per Zone Floor Area {m3/s-m2}
  ,                                       !- Cooling Minimum Air Flow {m3/s}
  ,                                       !- Cooling Minimum Air Flow Fraction
  DesignDay,                              !- Heating Design Air Flow Method
  ,                                       !- Heating Design Air Flow Rate {m3/s}
  ,                                       !- Heating Maximum Air Flow per Zone Floor Area {m3/s-m2}
  ,                                       !- Heating Maximum Air Flow {m3/s}
  ,                                       !- Heating Maximum Air Flow Fraction
  No,                                     !- Account for Dedicated Outdoor Air System
  NeutralSupplyAir,                       !- Dedicated Outdoor Air System Control Strategy
  autosize,                               !- Dedicated Outdoor Air Low Setpoint Temperature for Design {C}
  autosize;                               !- Dedicated Outdoor Air High Setpoint Temperature for Design {C}

OS:ZoneHVAC:EquipmentList,
  {4ff7ac65-03dc-46f1-a21e-e733466022ad}, !- Handle
  Zone HVAC Equipment List 1,             !- Name
  {70fe81fd-405a-466f-b29f-4ae40cc21f57}; !- Thermal Zone

OS:SubSurface,
  {b39b0407-1941-4f6a-b175-5159ff8d8e3b}, !- Handle
  Story 1 Core Space Exterior Wall 2 Window, !- Name
  FixedWindow,                            !- Sub Surface Type
  ,                                       !- Construction Name
  {2fabbcba-ac3e-4dfe-b14a-64a0d99c195e}, !- Surface Name
  ,                                       !- Outside Boundary Condition Object
  ,                                       !- View Factor to Ground
  ,                                       !- Frame and Divider Name
  ,                                       !- Multiplier
  ,                                       !- Number of Vertices
  99.9746, 50, 2.60081321311226,          !- X,Y,Z Vertex 1 {m}
  99.9746, 50, 1,                         !- X,Y,Z Vertex 2 {m}
  0.0253999999999905, 50, 1,              !- X,Y,Z Vertex 3 {m}
  0.0253999999999905, 50, 2.60081321311226; !- X,Y,Z Vertex 4 {m}

OS:SubSurface,
  {c1599de6-a48b-4c90-8532-88820087f59e}, !- Handle
  Story 1 Core Space Exterior Wall 1 Window, !- Name
  FixedWindow,                            !- Sub Surface Type
  ,                                       !- Construction Name
  {1656dd1b-dfe4-4f41-983d-0c546195ed7b}, !- Surface Name
  ,                                       !- Outside Boundary Condition Object
  ,                                       !- View Factor to Ground
  ,                                       !- Frame and Divider Name
  ,                                       !- Multiplier
  ,                                       !- Number of Vertices
  0.0254, 0, 2.60081321311226,            !- X,Y,Z Vertex 1 {m}
  0.0254, 0, 1,                           !- X,Y,Z Vertex 2 {m}
  99.9746, 0, 1,                          !- X,Y,Z Vertex 3 {m}
  99.9746, 0, 2.60081321311226;           !- X,Y,Z Vertex 4 {m}

OS:SubSurface,
  {545f996e-154d-4a46-9a6b-fbd47558775d}, !- Handle
  Story 1 Core Space Exterior Wall Window, !- Name
  FixedWindow,                            !- Sub Surface Type
  ,                                       !- Construction Name
  {aa98ab42-4723-4761-aa5a-c68142281b65}, !- Surface Name
  ,                                       !- Outside Boundary Condition Object
  ,                                       !- View Factor to Ground
  ,                                       !- Frame and Divider Name
  ,                                       !- Multiplier
  ,                                       !- Number of Vertices
  100, 0.0254, 2.60162725328934,          !- X,Y,Z Vertex 1 {m}
  100, 0.0254, 1,                         !- X,Y,Z Vertex 2 {m}
  100, 49.9746, 1,                        !- X,Y,Z Vertex 3 {m}
  100, 49.9746, 2.60162725328934;         !- X,Y,Z Vertex 4 {m}

OS:SubSurface,
  {63ef867d-d689-46ab-b479-c311264beefb}, !- Handle
  Story 1 Core Space Exterior Wall 3 Window, !- Name
  FixedWindow,                            !- Sub Surface Type
  ,                                       !- Construction Name
  {67cb9c26-278a-40f9-b384-0dcc47bfd0cf}, !- Surface Name
  ,                                       !- Outside Boundary Condition Object
  ,                                       !- View Factor to Ground
  ,                                       !- Frame and Divider Name
  ,                                       !- Multiplier
  ,                                       !- Number of Vertices
  0, 49.9746, 2.60162725328934,           !- X,Y,Z Vertex 1 {m}
  0, 49.9746, 1,                          !- X,Y,Z Vertex 2 {m}
  0, 0.0254000000000048, 1,               !- X,Y,Z Vertex 3 {m}
  0, 0.0254000000000048, 2.60162725328934; !- X,Y,Z Vertex 4 {m}

OS:Schedule:Ruleset,
  {c65ccb9e-e562-4408-938e-e6d702c6dc1c}, !- Handle
  Cooling Sch,                            !- Name
  {3d279fb0-1a25-4aff-86fa-68e2fb616be9}, !- Schedule Type Limits Name
  {38403f58-7378-4646-ab2c-89cef1ee3fa7}; !- Default Day Schedule Name

OS:Schedule:Day,
  {38403f58-7378-4646-ab2c-89cef1ee3fa7}, !- Handle
  Cooling Sch Default,                    !- Name
  {3d279fb0-1a25-4aff-86fa-68e2fb616be9}, !- Schedule Type Limits Name
  ,                                       !- Interpolate to Timestep
  24,                                     !- Hour 1
  0,                                      !- Minute 1
  28;                                     !- Value Until Time 1

OS:Schedule:Ruleset,
  {5a312517-0993-44ff-904d-bab71083bb23}, !- Handle
  Heating Sch,                            !- Name
  {3d279fb0-1a25-4aff-86fa-68e2fb616be9}, !- Schedule Type Limits Name
  {313c1e56-5bc1-49b8-9370-65e3560f101a}; !- Default Day Schedule Name

OS:Schedule:Day,
  {313c1e56-5bc1-49b8-9370-65e3560f101a}, !- Handle
  Heating Sch Default,                    !- Name
  {3d279fb0-1a25-4aff-86fa-68e2fb616be9}, !- Schedule Type Limits Name
  ,                                       !- Interpolate to Timestep
  24,                                     !- Hour 1
  0,                                      !- Minute 1
  24;                                     !- Value Until Time 1

OS:ThermostatSetpoint:DualSetpoint,
  {243b3bec-85d9-4fa0-a77e-95d2493a7f31}, !- Handle
  Thermostat Setpoint Dual Setpoint 1,    !- Name
  {5a312517-0993-44ff-904d-bab71083bb23}, !- Heating Setpoint Temperature Schedule Name
  {c65ccb9e-e562-4408-938e-e6d702c6dc1c}; !- Cooling Setpoint Temperature Schedule Name

OS:ScheduleTypeLimits,
  {3d279fb0-1a25-4aff-86fa-68e2fb616be9}, !- Handle
  Temperature,                            !- Name
  ,                                       !- Lower Limit Value
  ,                                       !- Upper Limit Value
  Continuous,                             !- Numeric Type
  Temperature;                            !- Unit Type

OS:DefaultConstructionSet,
  {8389b5f2-3639-4768-bf38-a413c3bbfeeb}, !- Handle
  ASHRAE_189.1-2009_ClimateZone 4-5 (mdoff)_ConstSet, !- Name
  {a402a05a-655b-460a-afaa-57f315a9aa51}, !- Default Exterior Surface Constructions Name
  {6db97b5f-0711-492e-92fa-f19651ba1033}, !- Default Interior Surface Constructions Name
  {b661445a-386c-4c15-af0c-cba6e8472e16}, !- Default Ground Contact Surface Constructions Name
  {8bc31964-1d4e-4bdb-ad7f-ac2b7294718a}, !- Default Exterior SubSurface Constructions Name
  {3f5dc54e-0e6b-4032-9417-e96f0cdb986b}, !- Default Interior SubSurface Constructions Name
  {1a480b41-5ad4-4d06-8072-406cdf345241}, !- Interior Partition Construction Name
  ,                                       !- Space Shading Construction Name
  ,                                       !- Building Shading Construction Name
  ,                                       !- Site Shading Construction Name
  ;                                       !- Adiabatic Surface Construction Name

OS:DefaultSurfaceConstructions,
  {a402a05a-655b-460a-afaa-57f315a9aa51}, !- Handle
  ASHRAE_189.1-2009_ClimateZone 4-5 (mdoff)_Exterior_DefSurfCons, !- Name
  {f0465fbf-5025-4158-b179-be2716897325}, !- Floor Construction Name
  {89ba74c4-7c50-4427-939d-a47c49175d75}, !- Wall Construction Name
  {5a1bd015-642c-49df-9f41-ab865f38bf94}; !- Roof Ceiling Construction Name

OS:DefaultSurfaceConstructions,
  {6db97b5f-0711-492e-92fa-f19651ba1033}, !- Handle
  000_Interior_DefSurfCons,               !- Name
  {78a79687-862f-439e-8e98-95b808de996f}, !- Floor Construction Name
  {26810cd9-0045-48df-928a-92b92b6b977c}, !- Wall Construction Name
  {740d7d3e-de4d-4c14-83fe-044678bbc882}; !- Roof Ceiling Construction Name

OS:DefaultSurfaceConstructions,
  {b661445a-386c-4c15-af0c-cba6e8472e16}, !- Handle
  000_Ground_DefSurfCons,                 !- Name
  {f0465fbf-5025-4158-b179-be2716897325}, !- Floor Construction Name
  {f0465fbf-5025-4158-b179-be2716897325}, !- Wall Construction Name
  {f0465fbf-5025-4158-b179-be2716897325}; !- Roof Ceiling Construction Name

OS:DefaultSubSurfaceConstructions,
  {8bc31964-1d4e-4bdb-ad7f-ac2b7294718a}, !- Handle
  ASHRAE_189.1-2009_ClimateZone 4-5 (mdoff)_Exterior_DefSubCons, !- Name
  {e62cbe07-d60d-4c0f-ba8e-12e5aacde7c3}, !- Fixed Window Construction Name
  {e62cbe07-d60d-4c0f-ba8e-12e5aacde7c3}, !- Operable Window Construction Name
  {fc94edd6-0c18-4dc2-b116-73df9395b222}, !- Door Construction Name
  {153ddeed-f75c-4030-92af-9c8b9c839d7f}, !- Glass Door Construction Name
  ,                                       !- Overhead Door Construction Name
  {153ddeed-f75c-4030-92af-9c8b9c839d7f}, !- Skylight Construction Name
  {46f4e9cc-c33d-4e0d-b293-9f5e3fc5dbcb}, !- Tubular Daylight Dome Construction Name
  {46f4e9cc-c33d-4e0d-b293-9f5e3fc5dbcb}; !- Tubular Daylight Diffuser Construction Name

OS:DefaultSubSurfaceConstructions,
  {3f5dc54e-0e6b-4032-9417-e96f0cdb986b}, !- Handle
  000_Interior_DefSubCons,                !- Name
  {46f4e9cc-c33d-4e0d-b293-9f5e3fc5dbcb}, !- Fixed Window Construction Name
  {46f4e9cc-c33d-4e0d-b293-9f5e3fc5dbcb}, !- Operable Window Construction Name
  {4ee97d21-dace-4c1f-82cc-cb9c7122fb76}, !- Door Construction Name
  {153ddeed-f75c-4030-92af-9c8b9c839d7f}, !- Glass Door Construction Name
  ,                                       !- Overhead Door Construction Name
  {153ddeed-f75c-4030-92af-9c8b9c839d7f}, !- Skylight Construction Name
  {46f4e9cc-c33d-4e0d-b293-9f5e3fc5dbcb}, !- Tubular Daylight Dome Construction Name
  {46f4e9cc-c33d-4e0d-b293-9f5e3fc5dbcb}; !- Tubular Daylight Diffuser Construction Name

OS:Construction,
  {1a480b41-5ad4-4d06-8072-406cdf345241}, !- Handle
  000_Interior Partition,                 !- Name
  ,                                       !- Surface Rendering Name
  {4067ea23-27ce-47fd-9b5d-f582936f5e51}; !- Layer 1

OS:Construction,
  {f0465fbf-5025-4158-b179-be2716897325}, !- Handle
  000_ExtSlabCarpet_4in_ClimateZone 1-8,  !- Name
  ,                                       !- Surface Rendering Name
  {9cba7f25-692f-4cdf-96f8-5b1074313fe1}, !- Layer 1
  {3fb5bf0c-b62f-4214-82f2-3720baab7db1}; !- Layer 2

OS:Construction,
  {89ba74c4-7c50-4427-939d-a47c49175d75}, !- Handle
  ASHRAE_189.1-2009_ExtWall_SteelFrame_ClimateZone 4-8, !- Name
  ,                                       !- Surface Rendering Name
  {de248d76-7de5-45a8-ba14-b631606bbc18}, !- Layer 1
  {6b53f737-3d9c-4767-800c-9a1ca66c289c}, !- Layer 2
  {c4d8ce56-04a0-4ef3-95d7-3b4c01bf6a4a}; !- Layer 3

OS:Construction,
  {5a1bd015-642c-49df-9f41-ab865f38bf94}, !- Handle
  ASHRAE_189.1-2009_ExtRoof_IEAD_ClimateZone 2-5, !- Name
  ,                                       !- Surface Rendering Name
  {ca4ac5b8-df93-4f6a-bad0-c19b4382df0d}, !- Layer 1
  {a8e9db72-f210-46f6-9c96-0a9a7a4d4ce2}, !- Layer 2
  {a137e99e-6479-4c20-9075-b9a9abafb62c}; !- Layer 3

OS:Construction,
  {78a79687-862f-439e-8e98-95b808de996f}, !- Handle
  000_Interior Floor,                     !- Name
  ,                                       !- Surface Rendering Name
  {cfcac885-bc53-4430-983a-89aef563f10d}, !- Layer 1
  {7c833a65-cbe8-4cb7-ad51-230ac8b89f34}, !- Layer 2
  {8abbedb8-299c-4c95-b60c-ab0f005b234a}; !- Layer 3

OS:Construction,
  {26810cd9-0045-48df-928a-92b92b6b977c}, !- Handle
  000_Interior Wall,                      !- Name
  ,                                       !- Surface Rendering Name
  {07c4af7e-06ec-4345-9b39-4a95151ee23b}, !- Layer 1
  {e3301eb4-fafd-4100-a809-c7bb3455fafb}, !- Layer 2
  {07c4af7e-06ec-4345-9b39-4a95151ee23b}; !- Layer 3

OS:Construction,
  {740d7d3e-de4d-4c14-83fe-044678bbc882}, !- Handle
  000_Interior Ceiling,                   !- Name
  ,                                       !- Surface Rendering Name
  {8abbedb8-299c-4c95-b60c-ab0f005b234a}, !- Layer 1
  {7c833a65-cbe8-4cb7-ad51-230ac8b89f34}, !- Layer 2
  {cfcac885-bc53-4430-983a-89aef563f10d}; !- Layer 3

OS:Construction,
  {e62cbe07-d60d-4c0f-ba8e-12e5aacde7c3}, !- Handle
  ASHRAE_189.1-2009_ExtWindow_ClimateZone 4-5, !- Name
  ,                                       !- Surface Rendering Name
  {66a09671-458a-4f1d-812d-7b799fd3315c}; !- Layer 1

OS:Construction,
  {fc94edd6-0c18-4dc2-b116-73df9395b222}, !- Handle
  000_Exterior Door,                      !- Name
  ,                                       !- Surface Rendering Name
  {532d6ff2-84e4-4d60-a4a8-f5244db1e3ae}, !- Layer 1
  {625b4bba-ea7e-4d42-8c2c-458e357afcbe}; !- Layer 2

OS:Construction,
  {153ddeed-f75c-4030-92af-9c8b9c839d7f}, !- Handle
  000_Exterior Window,                    !- Name
  ,                                       !- Surface Rendering Name
  {9d1c5a10-51e0-4f5a-87b2-060b7ec02bce}, !- Layer 1
  {5a4b27b4-e974-4684-aa5c-9065e664529a}, !- Layer 2
  {9d1c5a10-51e0-4f5a-87b2-060b7ec02bce}; !- Layer 3

OS:Construction,
  {46f4e9cc-c33d-4e0d-b293-9f5e3fc5dbcb}, !- Handle
  000_Interior Window,                    !- Name
  ,                                       !- Surface Rendering Name
  {9d1c5a10-51e0-4f5a-87b2-060b7ec02bce}; !- Layer 1

OS:Construction,
  {4ee97d21-dace-4c1f-82cc-cb9c7122fb76}, !- Handle
  000_Interior Door,                      !- Name
  ,                                       !- Surface Rendering Name
  {4067ea23-27ce-47fd-9b5d-f582936f5e51}; !- Layer 1

OS:Material,
  {4067ea23-27ce-47fd-9b5d-f582936f5e51}, !- Handle
  000_G05 25mm wood,                      !- Name
  MediumSmooth,                           !- Roughness
  0.025399999999999999,                   !- Thickness {m}
  0.14999999999999999,                    !- Conductivity {W/m-K}
  608,                                    !- Density {kg/m3}
  1630;                                   !- Specific Heat {J/kg-K}

OS:Material,
  {9cba7f25-692f-4cdf-96f8-5b1074313fe1}, !- Handle
  MAT-CC05 4 HW CONCRETE,                 !- Name
  Rough,                                  !- Roughness
  0.1016,                                 !- Thickness {m}
  1.3109999999999999,                     !- Conductivity {W/m-K}
  2240,                                   !- Density {kg/m3}
  836.8,                                  !- Specific Heat {J/kg-K}
  0.90000000000000002,                    !- Thermal Absorptance
  0.69999999999999996,                    !- Solar Absorptance
  0.69999999999999996;                    !- Visible Absorptance

OS:Material:NoMass,
  {3fb5bf0c-b62f-4214-82f2-3720baab7db1}, !- Handle
  CP02 CARPET PAD,                        !- Name
  VeryRough,                              !- Roughness
  0.2165,                                 !- Thermal Resistance {m2-K/W}
  0.90000000000000002,                    !- Thermal Absorptance
  0.69999999999999996,                    !- Solar Absorptance
  0.80000000000000004;                    !- Visible Absorptance

OS:Material:NoMass,
  {de248d76-7de5-45a8-ba14-b631606bbc18}, !- Handle
  MAT-SHEATH,                             !- Name
  Rough,                                  !- Roughness
  0.36259999999999998,                    !- Thermal Resistance {m2-K/W}
  0.90000000000000002,                    !- Thermal Absorptance
  0.69999999999999996,                    !- Solar Absorptance
  0.69999999999999996;                    !- Visible Absorptance

OS:Material,
  {6b53f737-3d9c-4767-800c-9a1ca66c289c}, !- Handle
  Wall Insulation [39],                   !- Name
  MediumRough,                            !- Roughness
  0.11840000000000001,                    !- Thickness {m}
  0.044999999999999998,                   !- Conductivity {W/m-K}
  265,                                    !- Density {kg/m3}
  836.8,                                  !- Specific Heat {J/kg-K}
  0.90000000000000002,                    !- Thermal Absorptance
  0.69999999999999996,                    !- Solar Absorptance
  0.69999999999999996;                    !- Visible Absorptance

OS:Material,
  {c4d8ce56-04a0-4ef3-95d7-3b4c01bf6a4a}, !- Handle
  1/2IN Gypsum,                           !- Name
  Smooth,                                 !- Roughness
  0.012699999999999999,                   !- Thickness {m}
  0.16,                                   !- Conductivity {W/m-K}
  784.89999999999998,                     !- Density {kg/m3}
  830,                                    !- Specific Heat {J/kg-K}
  0.90000000000000002,                    !- Thermal Absorptance
  0.92000000000000004,                    !- Solar Absorptance
  0.92000000000000004;                    !- Visible Absorptance

OS:Material,
  {ca4ac5b8-df93-4f6a-bad0-c19b4382df0d}, !- Handle
  Roof Membrane,                          !- Name
  VeryRough,                              !- Roughness
  0.0094999999999999998,                  !- Thickness {m}
  0.16,                                   !- Conductivity {W/m-K}
  1121.29,                                !- Density {kg/m3}
  1460,                                   !- Specific Heat {J/kg-K}
  0.90000000000000002,                    !- Thermal Absorptance
  0.69999999999999996,                    !- Solar Absorptance
  0.69999999999999996;                    !- Visible Absorptance

OS:Material,
  {a8e9db72-f210-46f6-9c96-0a9a7a4d4ce2}, !- Handle
  Roof Insulation [21],                   !- Name
  MediumRough,                            !- Roughness
  0.21049999999999999,                    !- Thickness {m}
  0.049000000000000002,                   !- Conductivity {W/m-K}
  265,                                    !- Density {kg/m3}
  836.8,                                  !- Specific Heat {J/kg-K}
  0.90000000000000002,                    !- Thermal Absorptance
  0.69999999999999996,                    !- Solar Absorptance
  0.69999999999999996;                    !- Visible Absorptance

OS:Material,
  {a137e99e-6479-4c20-9075-b9a9abafb62c}, !- Handle
  Metal Decking,                          !- Name
  MediumSmooth,                           !- Roughness
  0.0015,                                 !- Thickness {m}
  45.006,                                 !- Conductivity {W/m-K}
  7680,                                   !- Density {kg/m3}
  418.4,                                  !- Specific Heat {J/kg-K}
  0.90000000000000002,                    !- Thermal Absorptance
  0.69999999999999996,                    !- Solar Absorptance
  0.29999999999999999;                    !- Visible Absorptance

OS:Material,
  {cfcac885-bc53-4430-983a-89aef563f10d}, !- Handle
  000_F16 Acoustic tile,                  !- Name