
OS:Version,
  {288ed883-deca-4426-b815-c61079099e17}, !- Handle
  3.2.0;                                  !- Version Identifier

OS:BuildingStory,
  {5561b4da-d21b-471e-ae21-ddd715953251}, !- Handle
  Story 1,                                !- Name
  0,                                      !- Nominal Z Coordinate {m}
  4,                                      !- Nominal Floor to Floor Height {m}
  ,                                       !- Default Construction Set Name
  ,                                       !- Default Schedule Set Name
  ;                                       !- Group Rendering Name

OS:Space,
  {2be0335d-60da-40c1-a2a4-98be53d364bb}, !- Handle
  Story 1 Core Space,                     !- Name
  ,                                       !- Space Type Name
  ,                                       !- Default Construction Set Name
  ,                                       !- Default Schedule Set Name
  -0,                                     !- Direction of Relative North {deg}
  0,                                      !- X Origin {m}
  0,                                      !- Y Origin {m}
  0,                                      !- Z Origin {m}
  {5561b4da-d21b-471e-ae21-ddd715953251}, !- Building Story Name
  {53004213-867d-4891-9133-0da23b8c739d}; !- Thermal Zone Name

OS:Surface,
  {b87d3be3-ba6e-451f-8720-5af13b570d99}, !- Handle
  Surface 1,                              !- Name
  Floor,                                  !- Surface Type
  ,                                       !- Construction Name
  {2be0335d-60da-40c1-a2a4-98be53d364bb}, !- Space Name
  Ground,                                 !- Outside Boundary Condition
  ,                                       !- Outside Boundary Condition Object
  NoSun,                                  !- Sun Exposure
  NoWind,                                 !- Wind Exposure
  ,                                       !- View Factor to Ground
  ,                                       !- Number of Vertices
  0, 0, 0,                                !- X,Y,Z Vertex 1 {m}
  0, 50, 0,                               !- X,Y,Z Vertex 2 {m}
  100, 50, 0,                             !- X,Y,Z Vertex 3 {m}
  100, 0, 0;                              !- X,Y,Z Vertex 4 {m}

OS:Surface,
  {7b779151-2d71-42a7-999b-03a5277881c6}, !- Handle
  Surface 2,                              !- Name
  Wall,                                   !- Surface Type
  ,                                       !- Construction Name
  {2be0335d-60da-40c1-a2a4-98be53d364bb}, !- Space Name
  Outdoors,                               !- Outside Boundary Condition
  ,                                       !- Outside Boundary Condition Object
  SunExposed,                             !- Sun Exposure
  WindExposed,                            !- Wind Exposure
  ,                                       !- View Factor to Ground
  ,                                       !- Number of Vertices
  0, 50, 4,                               !- X,Y,Z Vertex 1 {m}
  0, 50, 0,                               !- X,Y,Z Vertex 2 {m}
  0, 0, 0,                                !- X,Y,Z Vertex 3 {m}
  0, 0, 4;                                !- X,Y,Z Vertex 4 {m}

OS:Surface,
  {7cac0262-406c-4ef1-8b90-7efbf1d28961}, !- Handle
  Surface 3,                              !- Name
  Wall,                                   !- Surface Type
  ,                                       !- Construction Name
  {2be0335d-60da-40c1-a2a4-98be53d364bb}, !- Space Name
  Outdoors,                               !- Outside Boundary Condition
  ,                                       !- Outside Boundary Condition Object
  SunExposed,                             !- Sun Exposure
  WindExposed,                            !- Wind Exposure
  ,                                       !- View Factor to Ground
  ,                                       !- Number of Vertices
  100, 50, 4,                             !- X,Y,Z Vertex 1 {m}
  100, 50, 0,                             !- X,Y,Z Vertex 2 {m}
  0, 50, 0,                               !- X,Y,Z Vertex 3 {m}
  0, 50, 4;                               !- X,Y,Z Vertex 4 {m}

OS:Surface,
  {49faefb4-c70c-4053-b0e2-2e89ace7c83e}, !- Handle
  Surface 4,                              !- Name
  Wall,                                   !- Surface Type
  ,                                       !- Construction Name
  {2be0335d-60da-40c1-a2a4-98be53d364bb}, !- Space Name
  Outdoors,                               !- Outside Boundary Condition
  ,                                       !- Outside Boundary Condition Object
  SunExposed,                             !- Sun Exposure
  WindExposed,                            !- Wind Exposure
  ,                                       !- View Factor to Ground
  ,                                       !- Number of Vertices
  100, 0, 4,                              !- X,Y,Z Vertex 1 {m}
  100, 0, 0,                              !- X,Y,Z Vertex 2 {m}
  100, 50, 0,                             !- X,Y,Z Vertex 3 {m}
  100, 50, 4;                             !- X,Y,Z Vertex 4 {m}

OS:Surface,
  {50423699-2989-438a-94b6-e9220db8abd3}, !- Handle
  Surface 5,                              !- Name
  Wall,                                   !- Surface Type
  ,                                       !- Construction Name
  {2be0335d-60da-40c1-a2a4-98be53d364bb}, !- Space Name
  Outdoors,                               !- Outside Boundary Condition
  ,                                       !- Outside Boundary Condition Object
  SunExposed,                             !- Sun Exposure
  WindExposed,                            !- Wind Exposure
  ,                                       !- View Factor to Ground
  ,                                       !- Number of Vertices
  0, 0, 4,                                !- X,Y,Z Vertex 1 {m}
  0, 0, 0,                                !- X,Y,Z Vertex 2 {m}
  100, 0, 0,                              !- X,Y,Z Vertex 3 {m}
  100, 0, 4;                              !- X,Y,Z Vertex 4 {m}

OS:Surface,
  {a97910f2-6b09-4f08-b7df-b4ddfc4a6894}, !- Handle
  Surface 6,                              !- Name
  RoofCeiling,                            !- Surface Type
  ,                                       !- Construction Name
  {2be0335d-60da-40c1-a2a4-98be53d364bb}, !- Space Name
  Outdoors,                               !- Outside Boundary Condition
  ,                                       !- Outside Boundary Condition Object
  SunExposed,                             !- Sun Exposure
  WindExposed,                            !- Wind Exposure
  ,                                       !- View Factor to Ground
  ,                                       !- Number of Vertices
  100, 0, 4,                              !- X,Y,Z Vertex 1 {m}
  100, 50, 4,                             !- X,Y,Z Vertex 2 {m}
  0, 50, 4,                               !- X,Y,Z Vertex 3 {m}
  0, 0, 4;                                !- X,Y,Z Vertex 4 {m}

OS:ThermalZone,
  {53004213-867d-4891-9133-0da23b8c739d}, !- Handle
  Story 1 Core Thermal Zone With Battery, !- Name
  ,                                       !- Multiplier
  ,                                       !- Ceiling Height {m}
  ,                                       !- Volume {m3}
  ,                                       !- Floor Area {m2}
  ,                                       !- Zone Inside Convection Algorithm
  ,                                       !- Zone Outside Convection Algorithm
  ,                                       !- Zone Conditioning Equipment List Name
  {f29e0c61-f2eb-4598-bb95-d12c500c3df9}, !- Zone Air Inlet Port List
  {9a59bde8-f7a6-410d-9978-1dedc1fc5516}, !- Zone Air Exhaust Port List
  {639b3a24-f939-4d82-80d4-3f9348e28542}, !- Zone Air Node Name
  {04e4a8d2-8e13-42ee-bcb2-8d80ac0ad4d1}, !- Zone Return Air Port List
  ,                                       !- Primary Daylighting Control Name
  ,                                       !- Fraction of Zone Controlled by Primary Daylighting Control
  ,                                       !- Secondary Daylighting Control Name
  ,                                       !- Fraction of Zone Controlled by Secondary Daylighting Control
  ,                                       !- Illuminance Map Name
  ,                                       !- Group Rendering Name
  {0ec45d0b-b1dc-4cba-ad4b-87b02df530f8}, !- Thermostat Name
  No;                                     !- Use Ideal Air Loads

OS:Node,
  {2b9ae1b1-f1f8-4abb-b3d6-692e496d2269}, !- Handle
  Node 1,                                 !- Name
  {639b3a24-f939-4d82-80d4-3f9348e28542}, !- Inlet Port
  ;                                       !- Outlet Port

OS:Connection,
  {639b3a24-f939-4d82-80d4-3f9348e28542}, !- Handle
  {53004213-867d-4891-9133-0da23b8c739d}, !- Source Object
  11,                                     !- Outlet Port
  {2b9ae1b1-f1f8-4abb-b3d6-692e496d2269}, !- Target Object
  2;                                      !- Inlet Port

OS:PortList,
  {f29e0c61-f2eb-4598-bb95-d12c500c3df9}, !- Handle
  {53004213-867d-4891-9133-0da23b8c739d}; !- HVAC Component

OS:PortList,
  {9a59bde8-f7a6-410d-9978-1dedc1fc5516}, !- Handle
  {53004213-867d-4891-9133-0da23b8c739d}; !- HVAC Component

OS:PortList,
  {04e4a8d2-8e13-42ee-bcb2-8d80ac0ad4d1}, !- Handle
  {53004213-867d-4891-9133-0da23b8c739d}; !- HVAC Component

OS:Sizing:Zone,
  {7b61c664-f05d-4935-9939-b1351327bf1e}, !- Handle
  {53004213-867d-4891-9133-0da23b8c739d}, !- Zone or ZoneList Name
  SupplyAirTemperature,                   !- Zone Cooling Design Supply Air Temperature Input Method
  14,                                     !- Zone Cooling Design Supply Air Temperature {C}
  11.11,                                  !- Zone Cooling Design Supply Air Temperature Difference {deltaC}
  SupplyAirTemperature,                   !- Zone Heating Design Supply Air Temperature Input Method
  40,                                     !- Zone Heating Design Supply Air Temperature {C}
  11.11,                                  !- Zone Heating Design Supply Air Temperature Difference {deltaC}
  0.0085,                                 !- Zone Cooling Design Supply Air Humidity Ratio {kg-H2O/kg-air}
  0.008,                                  !- Zone Heating Design Supply Air Humidity Ratio {kg-H2O/kg-air}
  ,                                       !- Zone Heating Sizing Factor
  ,                                       !- Zone Cooling Sizing Factor
  DesignDay,                              !- Cooling Design Air Flow Method
  ,                                       !- Cooling Design Air Flow Rate {m3/s}
  ,                                       !- Cooling Minimum Air Flow per Zone Floor Area {m3/s-m2}
  ,                                       !- Cooling Minimum Air Flow {m3/s}
  ,                                       !- Cooling Minimum Air Flow Fraction
  DesignDay,                              !- Heating Design Air Flow Method
  ,                                       !- Heating Design Air Flow Rate {m3/s}
  ,                                       !- Heating Maximum Air Flow per Zone Floor Area {m3/s-m2}
  ,                                       !- Heating Maximum Air Flow {m3/s}
  ,                                       !- Heating Maximum Air Flow Fraction
  No,                                     !- Account for Dedicated Outdoor Air System
  NeutralSupplyAir,                       !- Dedicated Outdoor Air System Control Strategy
  autosize,                               !- Dedicated Outdoor Air Low Setpoint Temperature for Design {C}
  autosize;                               !- Dedicated Outdoor Air High Setpoint Temperature for Design {C}

OS:ZoneHVAC:EquipmentList,
  {d12793c3-19de-4e52-9052-efcc564e73f2}, !- Handle
  Zone HVAC Equipment List 1,             !- Name
  {53004213-867d-4891-9133-0da23b8c739d}; !- Thermal Zone

OS:SubSurface,
  {b3ffbaa4-d64c-42ce-a37f-b1e085eca4ec}, !- Handle
  Sub Surface 1,                          !- Name
  FixedWindow,                            !- Sub Surface Type
  ,                                       !- Construction Name
  {49faefb4-c70c-4053-b0e2-2e89ace7c83e}, !- Surface Name
  ,                                       !- Outside Boundary Condition Object
  ,                                       !- View Factor to Ground
  ,                                       !- Frame and Divider Name
  ,                                       !- Multiplier
  ,                                       !- Number of Vertices
  100, 0.0254, 2.60162725328934,          !- X,Y,Z Vertex 1 {m}
  100, 0.0254, 1,                         !- X,Y,Z Vertex 2 {m}
  100, 49.9746, 1,                        !- X,Y,Z Vertex 3 {m}
  100, 49.9746, 2.60162725328934;         !- X,Y,Z Vertex 4 {m}

OS:SubSurface,
  {b3114853-eb5a-4afa-acf5-9562bed6b403}, !- Handle
  Sub Surface 2,                          !- Name
  FixedWindow,                            !- Sub Surface Type
  ,                                       !- Construction Name
  {50423699-2989-438a-94b6-e9220db8abd3}, !- Surface Name
  ,                                       !- Outside Boundary Condition Object
  ,                                       !- View Factor to Ground
  ,                                       !- Frame and Divider Name
  ,                                       !- Multiplier
  ,                                       !- Number of Vertices
  0.0254, 0, 2.60081321311226,            !- X,Y,Z Vertex 1 {m}
  0.0254, 0, 1,                           !- X,Y,Z Vertex 2 {m}
  99.9746, 0, 1,                          !- X,Y,Z Vertex 3 {m}
  99.9746, 0, 2.60081321311226;           !- X,Y,Z Vertex 4 {m}

OS:SubSurface,
  {df1d85eb-dc8e-424d-a453-29d989601ed7}, !- Handle
  Sub Surface 3,                          !- Name
  FixedWindow,                            !- Sub Surface Type
  ,                                       !- Construction Name
  {7cac0262-406c-4ef1-8b90-7efbf1d28961}, !- Surface Name
  ,                                       !- Outside Boundary Condition Object
  ,                                       !- View Factor to Ground
  ,                                       !- Frame and Divider Name
  ,                                       !- Multiplier
  ,                                       !- Number of Vertices
  99.9746, 50, 2.60081321311226,          !- X,Y,Z Vertex 1 {m}
  99.9746, 50, 1,                         !- X,Y,Z Vertex 2 {m}
  0.0253999999999905, 50, 1,              !- X,Y,Z Vertex 3 {m}
  0.0253999999999905, 50, 2.60081321311226; !- X,Y,Z Vertex 4 {m}

OS:SubSurface,
  {ad98fd41-b909-4212-8e30-e11571116b65}, !- Handle
  Sub Surface 4,                          !- Name
  FixedWindow,                            !- Sub Surface Type
  ,                                       !- Construction Name
  {7b779151-2d71-42a7-999b-03a5277881c6}, !- Surface Name
  ,                                       !- Outside Boundary Condition Object
  ,                                       !- View Factor to Ground
  ,                                       !- Frame and Divider Name
  ,                                       !- Multiplier
  ,                                       !- Number of Vertices
  0, 49.9746, 2.60162725328934,           !- X,Y,Z Vertex 1 {m}
  0, 49.9746, 1,                          !- X,Y,Z Vertex 2 {m}
  0, 0.0254000000000048, 1,               !- X,Y,Z Vertex 3 {m}
  0, 0.0254000000000048, 2.60162725328934; !- X,Y,Z Vertex 4 {m}

OS:Schedule:Ruleset,
  {a936d4dd-f84f-4047-a643-767a5612abd4}, !- Handle
  Cooling Sch,                            !- Name
  {2cd0ac9b-8328-4f8a-8716-1a39106629e3}, !- Schedule Type Limits Name
  {c774d034-35ac-4b8c-a4cf-a3f5e0c2a675}; !- Default Day Schedule Name

OS:Schedule:Day,
  {c774d034-35ac-4b8c-a4cf-a3f5e0c2a675}, !- Handle
  Cooling Sch Default,                    !- Name
  {2cd0ac9b-8328-4f8a-8716-1a39106629e3}, !- Schedule Type Limits Name
  ,                                       !- Interpolate to Timestep
  24,                                     !- Hour 1
  0,                                      !- Minute 1
  26;                                     !- Value Until Time 1

OS:Schedule:Ruleset,
  {d0b075b5-cb30-49b4-8844-3dfc2fb687b8}, !- Handle
  Heating Sch,                            !- Name
  {2cd0ac9b-8328-4f8a-8716-1a39106629e3}, !- Schedule Type Limits Name
  {afb29030-1c1a-475c-a453-54f7c848ebdc}; !- Default Day Schedule Name

OS:Schedule:Day,
  {afb29030-1c1a-475c-a453-54f7c848ebdc}, !- Handle
  Heating Sch Default,                    !- Name
  {2cd0ac9b-8328-4f8a-8716-1a39106629e3}, !- Schedule Type Limits Name
  ,                                       !- Interpolate to Timestep
  24,                                     !- Hour 1
  0,                                      !- Minute 1
  19;                                     !- Value Until Time 1

OS:ThermostatSetpoint:DualSetpoint,
  {0ec45d0b-b1dc-4cba-ad4b-87b02df530f8}, !- Handle
  Thermostat Setpoint Dual Setpoint 1,    !- Name
  {d0b075b5-cb30-49b4-8844-3dfc2fb687b8}, !- Heating Setpoint Temperature Schedule Name
  {a936d4dd-f84f-4047-a643-767a5612abd4}; !- Cooling Setpoint Temperature Schedule Name

OS:ScheduleTypeLimits,
  {2cd0ac9b-8328-4f8a-8716-1a39106629e3}, !- Handle
  Temperature,                            !- Name
  ,                                       !- Lower Limit Value
  ,                                       !- Upper Limit Value
  Continuous,                             !- Numeric Type
  Temperature;                            !- Unit Type

OS:DefaultConstructionSet,
  {3d91a1d6-6da0-458d-96c6-6fb67448ec34}, !- Handle
  ASHRAE_189.1-2009_ClimateZone 4-5 (mdoff)_ConstSet, !- Name
  {79264d6a-9f93-49b4-b97f-774499f96d99}, !- Default Exterior Surface Constructions Name
  {d44d0af8-9c8e-42fc-accd-f8ed112ea05f}, !- Default Interior Surface Constructions Name
  {ab38f6e3-e0ea-42a6-aebc-36b19419a465}, !- Default Ground Contact Surface Constructions Name
  {309303ee-51df-4463-af90-dc7bbacb5c9c}, !- Default Exterior SubSurface Constructions Name
  {59fc2ea0-6574-4de9-8222-6927f5bea9b0}, !- Default Interior SubSurface Constructions Name
  {27603f58-ae83-4440-8615-8f11c1f1b20d}, !- Interior Partition Construction Name
  ,                                       !- Space Shading Construction Name
  ,                                       !- Building Shading Construction Name
  ,                                       !- Site Shading Construction Name
  ;                                       !- Adiabatic Surface Construction Name

OS:DefaultSurfaceConstructions,
  {79264d6a-9f93-49b4-b97f-774499f96d99}, !- Handle
  ASHRAE_189.1-2009_ClimateZone 4-5 (mdoff)_Exterior_DefSurfCons, !- Name
  {eda5e946-78b7-4531-a867-00e780741989}, !- Floor Construction Name
  {af369751-b7a2-4cbe-8e26-59c7bfa6dbd7}, !- Wall Construction Name
  {09ef49d5-b0cd-4363-8a8d-42352ea64e83}; !- Roof Ceiling Construction Name

OS:DefaultSurfaceConstructions,
  {d44d0af8-9c8e-42fc-accd-f8ed112ea05f}, !- Handle
  000_Interior_DefSurfCons,               !- Name
  {d121536c-9f2c-4f53-801d-81a4a367bc75}, !- Floor Construction Name
  {5a1dad63-2a1c-413c-b5ce-6b7544faea0a}, !- Wall Construction Name
  {f3e6a036-db70-4fc7-98c0-fd5584736c73}; !- Roof Ceiling Construction Name

OS:DefaultSurfaceConstructions,
  {ab38f6e3-e0ea-42a6-aebc-36b19419a465}, !- Handle
  000_Ground_DefSurfCons,                 !- Name
  {eda5e946-78b7-4531-a867-00e780741989}, !- Floor Construction Name
  {eda5e946-78b7-4531-a867-00e780741989}, !- Wall Construction Name
  {eda5e946-78b7-4531-a867-00e780741989}; !- Roof Ceiling Construction Name

OS:DefaultSubSurfaceConstructions,
  {309303ee-51df-4463-af90-dc7bbacb5c9c}, !- Handle
  ASHRAE_189.1-2009_ClimateZone 4-5 (mdoff)_Exterior_DefSubCons, !- Name
  {92d2c385-d146-4034-97db-a2171c47ab4d}, !- Fixed Window Construction Name
  {92d2c385-d146-4034-97db-a2171c47ab4d}, !- Operable Window Construction Name
  {53e916a9-ae42-44ed-9d07-db114aff745c}, !- Door Construction Name
  {3c3f8ae4-0895-4158-9bdb-dc828fc4f6ba}, !- Glass Door Construction Name
  ,                                       !- Overhead Door Construction Name
  {3c3f8ae4-0895-4158-9bdb-dc828fc4f6ba}, !- Skylight Construction Name
  {4756c83a-4f43-46dd-989a-b6a0f380a8bd}, !- Tubular Daylight Dome Construction Name
  {4756c83a-4f43-46dd-989a-b6a0f380a8bd}; !- Tubular Daylight Diffuser Construction Name

OS:DefaultSubSurfaceConstructions,
  {59fc2ea0-6574-4de9-8222-6927f5bea9b0}, !- Handle
  000_Interior_DefSubCons,                !- Name
  {4756c83a-4f43-46dd-989a-b6a0f380a8bd}, !- Fixed Window Construction Name
  {4756c83a-4f43-46dd-989a-b6a0f380a8bd}, !- Operable Window Construction Name
  {90b5d251-dd5b-4ced-ad1b-1fde97693d97}, !- Door Construction Name
  {3c3f8ae4-0895-4158-9bdb-dc828fc4f6ba}, !- Glass Door Construction Name
  ,                                       !- Overhead Door Construction Name
  {3c3f8ae4-0895-4158-9bdb-dc828fc4f6ba}, !- Skylight Construction Name
  {4756c83a-4f43-46dd-989a-b6a0f380a8bd}, !- Tubular Daylight Dome Construction Name
  {4756c83a-4f43-46dd-989a-b6a0f380a8bd}; !- Tubular Daylight Diffuser Construction Name

OS:Construction,
  {27603f58-ae83-4440-8615-8f11c1f1b20d}, !- Handle
  000_Interior Partition,                 !- Name
  ,                                       !- Surface Rendering Name
  {805af0be-c503-4a0d-a593-045a3ece848b}; !- Layer 1

OS:Construction,
  {eda5e946-78b7-4531-a867-00e780741989}, !- Handle
  000_ExtSlabCarpet_4in_ClimateZone 1-8,  !- Name
  ,                                       !- Surface Rendering Name
  {d317124b-82d8-4b7a-9e27-3ede868685c9}, !- Layer 1
  {8c896a11-d5ee-430f-a535-26805de9f4a9}; !- Layer 2

OS:Construction,
  {af369751-b7a2-4cbe-8e26-59c7bfa6dbd7}, !- Handle
  ASHRAE_189.1-2009_ExtWall_SteelFrame_ClimateZone 4-8, !- Name
  ,                                       !- Surface Rendering Name
  {8df8e856-4ad8-4acd-8aa5-64a104eb7501}, !- Layer 1
  {e037fb3b-a230-4343-9f65-538acd7926e0}, !- Layer 2
  {f2b6ada6-4951-44e3-980b-39481e6ef1b0}; !- Layer 3

OS:Construction,
  {09ef49d5-b0cd-4363-8a8d-42352ea64e83}, !- Handle
  ASHRAE_189.1-2009_ExtRoof_IEAD_ClimateZone 2-5, !- Name
  ,                                       !- Surface Rendering Name
  {94760915-62ac-4ddf-a3d4-c5583e361fa2}, !- Layer 1
  {b4284fb0-2371-4b73-9039-e14b23c7ab46}, !- Layer 2
  {1971e29a-ff09-4536-b465-9117bef3130c}; !- Layer 3

OS:Construction,
  {d121536c-9f2c-4f53-801d-81a4a367bc75}, !- Handle
  000_Interior Floor,                     !- Name
  ,                                       !- Surface Rendering Name
  {5b4c7633-025c-4222-bc09-88489a99a396}, !- Layer 1
  {83372581-46ed-4632-8f80-fcaaeca56d56}, !- Layer 2
  {ab2995ff-aac6-499a-8164-e0d044cf5c51}; !- Layer 3

OS:Construction,
  {5a1dad63-2a1c-413c-b5ce-6b7544faea0a}, !- Handle
  000_Interior Wall,                      !- Name
  ,                                       !- Surface Rendering Name
  {7d040ca2-a8d6-4bd3-a164-c9a7b43c3661}, !- Layer 1
  {63def1aa-9498-4a6a-8c08-bfa6a2a899a7}, !- Layer 2
  {7d040ca2-a8d6-4bd3-a164-c9a7b43c3661}; !- Layer 3

OS:Construction,
  {f3e6a036-db70-4fc7-98c0-fd5584736c73}, !- Handle
  000_Interior Ceiling,                   !- Name
  ,                                       !- Surface Rendering Name
  {ab2995ff-aac6-499a-8164-e0d044cf5c51}, !- Layer 1
  {83372581-46ed-4632-8f80-fcaaeca56d56}, !- Layer 2
  {5b4c7633-025c-4222-bc09-88489a99a396}; !- Layer 3

OS:Construction,
  {92d2c385-d146-4034-97db-a2171c47ab4d}, !- Handle
  ASHRAE_189.1-2009_ExtWindow_ClimateZone 4-5, !- Name
  ,                                       !- Surface Rendering Name
  {67af52cc-1492-43e4-9b32-38b3051cd888}; !- Layer 1

OS:Construction,
  {53e916a9-ae42-44ed-9d07-db114aff745c}, !- Handle
  000_Exterior Door,                      !- Name
  ,                                       !- Surface Rendering Name
  {037f3fcc-5519-45c3-9a04-684eba6a61df}, !- Layer 1
  {74f4e619-e3bd-4a38-be40-2f3fc15f3880}; !- Layer 2

OS:Construction,
  {3c3f8ae4-0895-4158-9bdb-dc828fc4f6ba}, !- Handle
  000_Exterior Window,                    !- Name
  ,                                       !- Surface Rendering Name
  {b1169c34-9967-4311-8ac3-481dbb9501aa}, !- Layer 1
  {f0dd32e8-e84e-4913-9b7c-2660ff3d2d0f}, !- Layer 2
  {b1169c34-9967-4311-8ac3-481dbb9501aa}; !- Layer 3

OS:Construction,
  {4756c83a-4f43-46dd-989a-b6a0f380a8bd}, !- Handle
  000_Interior Window,                    !- Name
  ,                                       !- Surface Rendering Name
  {b1169c34-9967-4311-8ac3-481dbb9501aa}; !- Layer 1

OS:Construction,
  {90b5d251-dd5b-4ced-ad1b-1fde97693d97}, !- Handle
  000_Interior Door,                      !- Name
  ,                                       !- Surface Rendering Name
  {805af0be-c503-4a0d-a593-045a3ece848b}; !- Layer 1

OS:Material,
  {805af0be-c503-4a0d-a593-045a3ece848b}, !- Handle
  000_G05 25mm wood,                      !- Name
  MediumSmooth,                           !- Roughness
  0.025399999999999999,                   !- Thickness {m}
  0.14999999999999999,                    !- Conductivity {W/m-K}
  608,                                    !- Density {kg/m3}
  1630;                                   !- Specific Heat {J/kg-K}

OS:Material,
  {d317124b-82d8-4b7a-9e27-3ede868685c9}, !- Handle
  MAT-CC05 4 HW CONCRETE,                 !- Name
  Rough,                                  !- Roughness
  0.1016,                                 !- Thickness {m}
  1.3109999999999999,                     !- Conductivity {W/m-K}
  2240,                                   !- Density {kg/m3}
  836.8,                                  !- Specific Heat {J/kg-K}
  0.90000000000000002,                    !- Thermal Absorptance
  0.69999999999999996,                    !- Solar Absorptance
  0.69999999999999996;                    !- Visible Absorptance

OS:Material:NoMass,
  {8c896a11-d5ee-430f-a535-26805de9f4a9}, !- Handle
  CP02 CARPET PAD,                        !- Name
  VeryRough,                              !- Roughness
  0.2165,                                 !- Thermal Resistance
  0.90000000000000002,                    !- Thermal Absorptance
  0.69999999999999996,                    !- Solar Absorptance
  0.80000000000000004;                    !- Visible Absorptance

OS:Material:NoMass,
  {8df8e856-4ad8-4acd-8aa5-64a104eb7501}, !- Handle
  MAT-SHEATH,                             !- Name
  Rough,                                  !- Roughness
  0.36259999999999998,                    !- Thermal Resistance
  0.90000000000000002,                    !- Thermal Absorptance
  0.69999999999999996,                    !- Solar Absorptance
  0.69999999999999996;                    !- Visible Absorptance

OS:Material,
  {e037fb3b-a230-4343-9f65-538acd7926e0}, !- Handle
  Wall Insulation [39],                   !- Name
  MediumRough,                            !- Roughness
  0.11840000000000001,                    !- Thickness {m}
  0.044999999999999998,                   !- Conductivity {W/m-K}
  265,                                    !- Density {kg/m3}
  836.8,                                  !- Specific Heat {J/kg-K}
  0.90000000000000002,                    !- Thermal Absorptance
  0.69999999999999996,                    !- Solar Absorptance
  0.69999999999999996;                    !- Visible Absorptance

OS:Material,
  {f2b6ada6-4951-44e3-980b-39481e6ef1b0}, !- Handle
  1/2IN Gypsum,                           !- Name
  Smooth,                                 !- Roughness
  0.012699999999999999,                   !- Thickness {m}
  0.16,                                   !- Conductivity {W/m-K}
  784.89999999999998,                     !- Density {kg/m3}
  830,                                    !- Specific Heat {J/kg-K}
  0.90000000000000002,                    !- Thermal Absorptance
  0.92000000000000004,                    !- Solar Absorptance
  0.92000000000000004;                    !- Visible Absorptance

OS:Material,
  {94760915-62ac-4ddf-a3d4-c5583e361fa2}, !- Handle
  Roof Membrane,                          !- Name
  VeryRough,                              !- Roughness
  0.0094999999999999998,                  !- Thickness {m}
  0.16,                                   !- Conductivity {W/m-K}
  1121.29,                                !- Density {kg/m3}
  1460,                                   !- Specific Heat {J/kg-K}
  0.90000000000000002,                    !- Thermal Absorptance
  0.69999999999999996,                    !- Solar Absorptance
  0.69999999999999996;                    !- Visible Absorptance

OS:Material,
  {b4284fb0-2371-4b73-9039-e14b23c7ab46}, !- Handle
  Roof Insulation [21],                   !- Name
  MediumRough,                            !- Roughness
  0.21049999999999999,                    !- Thickness {m}
  0.049000000000000002,                   !- Conductivity {W/m-K}
  265,                                    !- Density {kg/m3}
  836.8,                                  !- Specific Heat {J/kg-K}
  0.90000000000000002,                    !- Thermal Absorptance
  0.69999999999999996,                    !- Solar Absorptance
  0.69999999999999996;                    !- Visible Absorptance

OS:Material,
  {1971e29a-ff09-4536-b465-9117bef3130c}, !- Handle
  Metal Decking,                          !- Name
  MediumSmooth,                           !- Roughness
  0.0015,                                 !- Thickness {m}
  45.006,                                 !- Conductivity {W/m-K}
  7680,                                   !- Density {kg/m3}
  418.4,                                  !- Specific Heat {J/kg-K}
  0.90000000000000002,                    !- Thermal Absorptance
  0.69999999999999996,                    !- Solar Absorptance
  0.29999999999999999;                    !- Visible Absorptance

OS:Material,
  {5b4c7633-025c-4222-bc09-88489a99a396}, !- Handle
  000_F16 Acoustic tile,                  !- Name
  MediumSmooth,                           !- Roughness