
OS:Version,
  {49095c11-3173-47cd-b233-66cd4d6dcbd7}, !- Handle
  2.7.2;                                  !- Version Identifier

OS:BuildingStory,
  {5da15889-4267-4145-95f2-1a11596491ef}, !- Handle
  Story 1,                                !- Name
  0,                                      !- Nominal Z Coordinate {m}
  4,                                      !- Nominal Floor to Floor Height {m}
  ,                                       !- Default Construction Set Name
  ,                                       !- Default Schedule Set Name
  ;                                       !- Group Rendering Name

OS:Space,
  {592637e8-e49e-44e4-8db0-a9612e1d8d6b}, !- Handle
  Story 1 West Perimeter Space,           !- Name
  ,                                       !- Space Type Name
  ,                                       !- Default Construction Set Name
  ,                                       !- Default Schedule Set Name
  -0,                                     !- Direction of Relative North {deg}
  0,                                      !- X Origin {m}
  0,                                      !- Y Origin {m}
  0,                                      !- Z Origin {m}
  {5da15889-4267-4145-95f2-1a11596491ef}, !- Building Story Name
  {aec4333e-cdeb-4ede-9071-4311ef1c22a3}; !- Thermal Zone Name

OS:Surface,
  {a8b62327-8891-488e-a82e-91a0005718c4}, !- Handle
  Surface 1,                              !- Name
  Floor,                                  !- Surface Type
  ,                                       !- Construction Name
  {592637e8-e49e-44e4-8db0-a9612e1d8d6b}, !- Space Name
  Ground,                                 !- Outside Boundary Condition
  ,                                       !- Outside Boundary Condition Object
  NoSun,                                  !- Sun Exposure
  NoWind,                                 !- Wind Exposure
  ,                                       !- View Factor to Ground
  ,                                       !- Number of Vertices
  0, 0, 0,                                !- X,Y,Z Vertex 1 {m}
  0, 50, 0,                               !- X,Y,Z Vertex 2 {m}
  10, 40, 0,                              !- X,Y,Z Vertex 3 {m}
  10, 10, 0;                              !- X,Y,Z Vertex 4 {m}

OS:Surface,
  {9fcaedd0-a560-4386-bb6b-347f6c92641b}, !- Handle
  Surface 2,                              !- Name
  Wall,                                   !- Surface Type
  ,                                       !- Construction Name
  {592637e8-e49e-44e4-8db0-a9612e1d8d6b}, !- Space Name
  Outdoors,                               !- Outside Boundary Condition
  ,                                       !- Outside Boundary Condition Object
  SunExposed,                             !- Sun Exposure
  WindExposed,                            !- Wind Exposure
  ,                                       !- View Factor to Ground
  ,                                       !- Number of Vertices
  0, 50, 4,                               !- X,Y,Z Vertex 1 {m}
  0, 50, 0,                               !- X,Y,Z Vertex 2 {m}
  0, 0, 0,                                !- X,Y,Z Vertex 3 {m}
  0, 0, 4;                                !- X,Y,Z Vertex 4 {m}

OS:Surface,
  {71fcc612-ca48-4cc5-bcda-3264f37cd15c}, !- Handle
  Surface 3,                              !- Name
  Wall,                                   !- Surface Type
  ,                                       !- Construction Name
  {592637e8-e49e-44e4-8db0-a9612e1d8d6b}, !- Space Name
  Surface,                                !- Outside Boundary Condition
  {73abfc00-678d-42e0-a95e-c99c20473753}, !- Outside Boundary Condition Object
  NoSun,                                  !- Sun Exposure
  NoWind,                                 !- Wind Exposure
  ,                                       !- View Factor to Ground
  ,                                       !- Number of Vertices
  10, 40, 4,                              !- X,Y,Z Vertex 1 {m}
  10, 40, 0,                              !- X,Y,Z Vertex 2 {m}
  0, 50, 0,                               !- X,Y,Z Vertex 3 {m}
  0, 50, 4;                               !- X,Y,Z Vertex 4 {m}

OS:Surface,
  {6c0a8045-2f86-4261-a120-7439144719cf}, !- Handle
  Surface 4,                              !- Name
  Wall,                                   !- Surface Type
  ,                                       !- Construction Name
  {592637e8-e49e-44e4-8db0-a9612e1d8d6b}, !- Space Name
  Surface,                                !- Outside Boundary Condition
  {09ccd8a1-b184-40d2-a356-a981ea667ea3}, !- Outside Boundary Condition Object
  NoSun,                                  !- Sun Exposure
  NoWind,                                 !- Wind Exposure
  ,                                       !- View Factor to Ground
  ,                                       !- Number of Vertices
  10, 10, 4,                              !- X,Y,Z Vertex 1 {m}
  10, 10, 0,                              !- X,Y,Z Vertex 2 {m}
  10, 40, 0,                              !- X,Y,Z Vertex 3 {m}
  10, 40, 4;                              !- X,Y,Z Vertex 4 {m}

OS:Surface,
  {79902232-c804-408c-aa0c-e4f47643621c}, !- Handle
  Surface 5,                              !- Name
  Wall,                                   !- Surface Type
  ,                                       !- Construction Name
  {592637e8-e49e-44e4-8db0-a9612e1d8d6b}, !- Space Name
  Surface,                                !- Outside Boundary Condition
  {cdd15e0c-28f1-42fc-840a-1b45f9e22133}, !- Outside Boundary Condition Object
  NoSun,                                  !- Sun Exposure
  NoWind,                                 !- Wind Exposure
  ,                                       !- View Factor to Ground
  ,                                       !- Number of Vertices
  0, 0, 4,                                !- X,Y,Z Vertex 1 {m}
  0, 0, 0,                                !- X,Y,Z Vertex 2 {m}
  10, 10, 0,                              !- X,Y,Z Vertex 3 {m}
  10, 10, 4;                              !- X,Y,Z Vertex 4 {m}

OS:Surface,
  {82ed9919-76cf-4d98-9ff9-de39ba2053d8}, !- Handle
  Surface 6,                              !- Name
  RoofCeiling,                            !- Surface Type
  ,                                       !- Construction Name
  {592637e8-e49e-44e4-8db0-a9612e1d8d6b}, !- Space Name
  Outdoors,                               !- Outside Boundary Condition
  ,                                       !- Outside Boundary Condition Object
  SunExposed,                             !- Sun Exposure
  WindExposed,                            !- Wind Exposure
  ,                                       !- View Factor to Ground
  ,                                       !- Number of Vertices
  10, 10, 4,                              !- X,Y,Z Vertex 1 {m}
  10, 40, 4,                              !- X,Y,Z Vertex 2 {m}
  0, 50, 4,                               !- X,Y,Z Vertex 3 {m}
  0, 0, 4;                                !- X,Y,Z Vertex 4 {m}

OS:Space,
  {522906c7-d5bd-45ff-8688-c7ac6165d09e}, !- Handle
  Story 1 North Perimeter Space,          !- Name
  ,                                       !- Space Type Name
  ,                                       !- Default Construction Set Name
  ,                                       !- Default Schedule Set Name
  -0,                                     !- Direction of Relative North {deg}
  10,                                     !- X Origin {m}
  40,                                     !- Y Origin {m}
  0,                                      !- Z Origin {m}
  {5da15889-4267-4145-95f2-1a11596491ef}, !- Building Story Name
  {a84374e6-1fbe-4d4c-b255-fd24553295a8}; !- Thermal Zone Name

OS:Surface,
  {6e5e3096-323e-492e-98a7-9d9819ede000}, !- Handle
  Surface 7,                              !- Name
  Floor,                                  !- Surface Type
  ,                                       !- Construction Name
  {522906c7-d5bd-45ff-8688-c7ac6165d09e}, !- Space Name
  Ground,                                 !- Outside Boundary Condition
  ,                                       !- Outside Boundary Condition Object
  NoSun,                                  !- Sun Exposure
  NoWind,                                 !- Wind Exposure
  ,                                       !- View Factor to Ground
  ,                                       !- Number of Vertices
  -10, 10, 0,                             !- X,Y,Z Vertex 1 {m}
  90, 10, 0,                              !- X,Y,Z Vertex 2 {m}
  80, 0, 0,                               !- X,Y,Z Vertex 3 {m}
  0, 0, 0;                                !- X,Y,Z Vertex 4 {m}

OS:Surface,
  {5eb00dd4-4397-4873-b568-6006e4cb650a}, !- Handle
  Surface 8,                              !- Name
  Wall,                                   !- Surface Type
  ,                                       !- Construction Name
  {522906c7-d5bd-45ff-8688-c7ac6165d09e}, !- Space Name
  Outdoors,                               !- Outside Boundary Condition
  ,                                       !- Outside Boundary Condition Object
  SunExposed,                             !- Sun Exposure
  WindExposed,                            !- Wind Exposure
  ,                                       !- View Factor to Ground
  ,                                       !- Number of Vertices
  90, 10, 4,                              !- X,Y,Z Vertex 1 {m}
  90, 10, 0,                              !- X,Y,Z Vertex 2 {m}
  -10, 10, 0,                             !- X,Y,Z Vertex 3 {m}
  -10, 10, 4;                             !- X,Y,Z Vertex 4 {m}

OS:Surface,
  {07cf1ede-9b96-42b9-8f99-5eb4831e822e}, !- Handle
  Surface 9,                              !- Name
  Wall,                                   !- Surface Type
  ,                                       !- Construction Name
  {522906c7-d5bd-45ff-8688-c7ac6165d09e}, !- Space Name
  Surface,                                !- Outside Boundary Condition
  {39008719-aa2d-419c-bb15-37fa98c87256}, !- Outside Boundary Condition Object
  NoSun,                                  !- Sun Exposure
  NoWind,                                 !- Wind Exposure
  ,                                       !- View Factor to Ground
  ,                                       !- Number of Vertices
  80, 0, 4,                               !- X,Y,Z Vertex 1 {m}
  80, 0, 0,                               !- X,Y,Z Vertex 2 {m}
  90, 10, 0,                              !- X,Y,Z Vertex 3 {m}
  90, 10, 4;                              !- X,Y,Z Vertex 4 {m}

OS:Surface,
  {74c4bd2f-182c-4bfc-88ff-574e94153c29}, !- Handle
  Surface 10,                             !- Name
  Wall,                                   !- Surface Type
  ,                                       !- Construction Name
  {522906c7-d5bd-45ff-8688-c7ac6165d09e}, !- Space Name
  Surface,                                !- Outside Boundary Condition
  {b8bfe0f6-8ef2-4ee3-9c22-ac3b9758b735}, !- Outside Boundary Condition Object
  NoSun,                                  !- Sun Exposure
  NoWind,                                 !- Wind Exposure
  ,                                       !- View Factor to Ground
  ,                                       !- Number of Vertices
  0, 0, 4,                                !- X,Y,Z Vertex 1 {m}
  0, 0, 0,                                !- X,Y,Z Vertex 2 {m}
  80, 0, 0,                               !- X,Y,Z Vertex 3 {m}
  80, 0, 4;                               !- X,Y,Z Vertex 4 {m}

OS:Surface,
  {73abfc00-678d-42e0-a95e-c99c20473753}, !- Handle
  Surface 11,                             !- Name
  Wall,                                   !- Surface Type
  ,                                       !- Construction Name
  {522906c7-d5bd-45ff-8688-c7ac6165d09e}, !- Space Name
  Surface,                                !- Outside Boundary Condition
  {71fcc612-ca48-4cc5-bcda-3264f37cd15c}, !- Outside Boundary Condition Object
  NoSun,                                  !- Sun Exposure
  NoWind,                                 !- Wind Exposure
  ,                                       !- View Factor to Ground
  ,                                       !- Number of Vertices
  -10, 10, 4,                             !- X,Y,Z Vertex 1 {m}
  -10, 10, 0,                             !- X,Y,Z Vertex 2 {m}
  0, 0, 0,                                !- X,Y,Z Vertex 3 {m}
  0, 0, 4;                                !- X,Y,Z Vertex 4 {m}

OS:Surface,
  {94439ab1-c266-4ea6-bffd-5181f9620d21}, !- Handle
  Surface 12,                             !- Name
  RoofCeiling,                            !- Surface Type
  ,                                       !- Construction Name
  {522906c7-d5bd-45ff-8688-c7ac6165d09e}, !- Space Name
  Outdoors,                               !- Outside Boundary Condition
  ,                                       !- Outside Boundary Condition Object
  SunExposed,                             !- Sun Exposure
  WindExposed,                            !- Wind Exposure
  ,                                       !- View Factor to Ground
  ,                                       !- Number of Vertices
  0, 0, 4,                                !- X,Y,Z Vertex 1 {m}
  80, 0, 4,                               !- X,Y,Z Vertex 2 {m}
  90, 10, 4,                              !- X,Y,Z Vertex 3 {m}
  -10, 10, 4;                             !- X,Y,Z Vertex 4 {m}

OS:Space,
  {0d68e65a-aacd-4e67-ae76-689a0452a21d}, !- Handle
  Story 1 East Perimeter Space,           !- Name
  ,                                       !- Space Type Name
  ,                                       !- Default Construction Set Name
  ,                                       !- Default Schedule Set Name
  -0,                                     !- Direction of Relative North {deg}
  90,                                     !- X Origin {m}
  10,                                     !- Y Origin {m}
  0,                                      !- Z Origin {m}
  {5da15889-4267-4145-95f2-1a11596491ef}, !- Building Story Name
  {0052e35d-6c04-4feb-ad2e-9087be3c361c}; !- Thermal Zone Name

OS:Surface,
  {68a620b1-ab2f-479e-953c-0effe3ecb543}, !- Handle
  Surface 13,                             !- Name
  Floor,                                  !- Surface Type
  ,                                       !- Construction Name
  {0d68e65a-aacd-4e67-ae76-689a0452a21d}, !- Space Name
  Ground,                                 !- Outside Boundary Condition
  ,                                       !- Outside Boundary Condition Object
  NoSun,                                  !- Sun Exposure
  NoWind,                                 !- Wind Exposure
  ,                                       !- View Factor to Ground
  ,                                       !- Number of Vertices
  10, 40, 0,                              !- X,Y,Z Vertex 1 {m}
  10, -10, 0,                             !- X,Y,Z Vertex 2 {m}
  0, 0, 0,                                !- X,Y,Z Vertex 3 {m}
  0, 30, 0;                               !- X,Y,Z Vertex 4 {m}

OS:Surface,
  {dbaf313f-78c0-46e1-ad16-bfd4bbdf9dd9}, !- Handle
  Surface 14,                             !- Name
  Wall,                                   !- Surface Type
  ,                                       !- Construction Name
  {0d68e65a-aacd-4e67-ae76-689a0452a21d}, !- Space Name
  Outdoors,                               !- Outside Boundary Condition
  ,                                       !- Outside Boundary Condition Object
  SunExposed,                             !- Sun Exposure
  WindExposed,                            !- Wind Exposure
  ,                                       !- View Factor to Ground
  ,                                       !- Number of Vertices
  10, -10, 4,                             !- X,Y,Z Vertex 1 {m}
  10, -10, 0,                             !- X,Y,Z Vertex 2 {m}
  10, 40, 0,                              !- X,Y,Z Vertex 3 {m}
  10, 40, 4;                              !- X,Y,Z Vertex 4 {m}

OS:Surface,
  {9ee8f7f6-8a89-4289-b408-a76fcdd9ad0f}, !- Handle
  Surface 15,                             !- Name
  Wall,                                   !- Surface Type
  ,                                       !- Construction Name
  {0d68e65a-aacd-4e67-ae76-689a0452a21d}, !- Space Name
  Surface,                                !- Outside Boundary Condition
  {336b6d67-32ec-4cc8-a9db-d05027c1a35d}, !- Outside Boundary Condition Object
  NoSun,                                  !- Sun Exposure
  NoWind,                                 !- Wind Exposure
  ,                                       !- View Factor to Ground
  ,                                       !- Number of Vertices
  0, 0, 4,                                !- X,Y,Z Vertex 1 {m}
  0, 0, 0,                                !- X,Y,Z Vertex 2 {m}
  10, -10, 0,                             !- X,Y,Z Vertex 3 {m}
  10, -10, 4;                             !- X,Y,Z Vertex 4 {m}

OS:Surface,
  {4433a86a-d567-4a23-9746-8b1292fa32f3}, !- Handle
  Surface 16,                             !- Name
  Wall,                                   !- Surface Type
  ,                                       !- Construction Name
  {0d68e65a-aacd-4e67-ae76-689a0452a21d}, !- Space Name
  Surface,                                !- Outside Boundary Condition
  {85eb95b4-80d4-422a-afd3-92682e90a896}, !- Outside Boundary Condition Object
  NoSun,                                  !- Sun Exposure
  NoWind,                                 !- Wind Exposure
  ,                                       !- View Factor to Ground
  ,                                       !- Number of Vertices
  0, 30, 4,                               !- X,Y,Z Vertex 1 {m}
  0, 30, 0,                               !- X,Y,Z Vertex 2 {m}
  0, 0, 0,                                !- X,Y,Z Vertex 3 {m}
  0, 0, 4;                                !- X,Y,Z Vertex 4 {m}

OS:Surface,
  {39008719-aa2d-419c-bb15-37fa98c87256}, !- Handle
  Surface 17,                             !- Name
  Wall,                                   !- Surface Type
  ,                                       !- Construction Name
  {0d68e65a-aacd-4e67-ae76-689a0452a21d}, !- Space Name
  Surface,                                !- Outside Boundary Condition
  {07cf1ede-9b96-42b9-8f99-5eb4831e822e}, !- Outside Boundary Condition Object
  NoSun,                                  !- Sun Exposure
  NoWind,                                 !- Wind Exposure
  ,                                       !- View Factor to Ground
  ,                                       !- Number of Vertices
  10, 40, 4,                              !- X,Y,Z Vertex 1 {m}
  10, 40, 0,                              !- X,Y,Z Vertex 2 {m}
  0, 30, 0,                               !- X,Y,Z Vertex 3 {m}
  0, 30, 4;                               !- X,Y,Z Vertex 4 {m}

OS:Surface,
  {e903406d-0b52-4631-85cd-0c150265838c}, !- Handle
  Surface 18,                             !- Name
  RoofCeiling,                            !- Surface Type
  ,                                       !- Construction Name
  {0d68e65a-aacd-4e67-ae76-689a0452a21d}, !- Space Name
  Outdoors,                               !- Outside Boundary Condition
  ,                                       !- Outside Boundary Condition Object
  SunExposed,                             !- Sun Exposure
  WindExposed,                            !- Wind Exposure
  ,                                       !- View Factor to Ground
  ,                                       !- Number of Vertices
  0, 30, 4,                               !- X,Y,Z Vertex 1 {m}
  0, 0, 4,                                !- X,Y,Z Vertex 2 {m}
  10, -10, 4,                             !- X,Y,Z Vertex 3 {m}
  10, 40, 4;                              !- X,Y,Z Vertex 4 {m}

OS:Space,
  {3ab3bb50-09fd-413d-930f-36aec3f39117}, !- Handle
  Story 1 South Perimeter Space,          !- Name
  ,                                       !- Space Type Name
  ,                                       !- Default Construction Set Name
  ,                                       !- Default Schedule Set Name
  -0,                                     !- Direction of Relative North {deg}
  0,                                      !- X Origin {m}
  0,                                      !- Y Origin {m}
  0,                                      !- Z Origin {m}
  {5da15889-4267-4145-95f2-1a11596491ef}, !- Building Story Name
  {8db5654d-425a-44f6-b771-338699702fca}; !- Thermal Zone Name

OS:Surface,
  {28a9eb5e-8772-4e9c-9f1b-7d892f99aa0b}, !- Handle
  Surface 19,                             !- Name
  Floor,                                  !- Surface Type
  ,                                       !- Construction Name
  {3ab3bb50-09fd-413d-930f-36aec3f39117}, !- Space Name
  Ground,                                 !- Outside Boundary Condition
  ,                                       !- Outside Boundary Condition Object
  NoSun,                                  !- Sun Exposure
  NoWind,                                 !- Wind Exposure
  ,                                       !- View Factor to Ground
  ,                                       !- Number of Vertices
  100, 0, 0,                              !- X,Y,Z Vertex 1 {m}
  0, 0, 0,                                !- X,Y,Z Vertex 2 {m}
  10, 10, 0,                              !- X,Y,Z Vertex 3 {m}
  90, 10, 0;                              !- X,Y,Z Vertex 4 {m}

OS:Surface,
  {cf7de3e4-1d55-417e-9c42-22b39a7f212f}, !- Handle
  Surface 20,                             !- Name
  Wall,                                   !- Surface Type
  ,                                       !- Construction Name
  {3ab3bb50-09fd-413d-930f-36aec3f39117}, !- Space Name
  Outdoors,                               !- Outside Boundary Condition
  ,                                       !- Outside Boundary Condition Object
  SunExposed,                             !- Sun Exposure
  WindExposed,                            !- Wind Exposure
  ,                                       !- View Factor to Ground
  ,                                       !- Number of Vertices
  0, 0, 4,                                !- X,Y,Z Vertex 1 {m}
  0, 0, 0,                                !- X,Y,Z Vertex 2 {m}
  100, 0, 0,                              !- X,Y,Z Vertex 3 {m}
  100, 0, 4;                              !- X,Y,Z Vertex 4 {m}

OS:Surface,
  {cdd15e0c-28f1-42fc-840a-1b45f9e22133}, !- Handle
  Surface 21,                             !- Name
  Wall,                                   !- Surface Type
  ,                                       !- Construction Name
  {3ab3bb50-09fd-413d-930f-36aec3f39117}, !- Space Name
  Surface,                                !- Outside Boundary Condition
  {79902232-c804-408c-aa0c-e4f47643621c}, !- Outside Boundary Condition Object
  NoSun,                                  !- Sun Exposure
  NoWind,                                 !- Wind Exposure
  ,                                       !- View Factor to Ground
  ,                                       !- Number of Vertices
  10, 10, 4,                              !- X,Y,Z Vertex 1 {m}
  10, 10, 0,                              !- X,Y,Z Vertex 2 {m}
  0, 0, 0,                                !- X,Y,Z Vertex 3 {m}
  0, 0, 4;                                !- X,Y,Z Vertex 4 {m}

OS:Surface,
  {9a0b6525-adb1-45ed-8382-d5fa0c5c7153}, !- Handle
  Surface 22,                             !- Name
  Wall,                                   !- Surface Type
  ,                                       !- Construction Name
  {3ab3bb50-09fd-413d-930f-36aec3f39117}, !- Space Name
  Surface,                                !- Outside Boundary Condition
  {f4fbe9d8-8bc8-4f4d-86df-7e7f14bea771}, !- Outside Boundary Condition Object
  NoSun,                                  !- Sun Exposure
  NoWind,                                 !- Wind Exposure
  ,                                       !- View Factor to Ground
  ,                                       !- Number of Vertices
  90, 10, 4,                              !- X,Y,Z Vertex 1 {m}
  90, 10, 0,                              !- X,Y,Z Vertex 2 {m}
  10, 10, 0,                              !- X,Y,Z Vertex 3 {m}
  10, 10, 4;                              !- X,Y,Z Vertex 4 {m}

OS:Surface,
  {336b6d67-32ec-4cc8-a9db-d05027c1a35d}, !- Handle
  Surface 23,                             !- Name
  Wall,                                   !- Surface Type
  ,                                       !- Construction Name
  {3ab3bb50-09fd-413d-930f-36aec3f39117}, !- Space Name
  Surface,                                !- Outside Boundary Condition
  {9ee8f7f6-8a89-4289-b408-a76fcdd9ad0f}, !- Outside Boundary Condition Object
  NoSun,                                  !- Sun Exposure
  NoWind,                                 !- Wind Exposure
  ,                                       !- View Factor to Ground
  ,                                       !- Number of Vertices
  100, 0, 4,                              !- X,Y,Z Vertex 1 {m}
  100, 0, 0,                              !- X,Y,Z Vertex 2 {m}
  90, 10, 0,                              !- X,Y,Z Vertex 3 {m}
  90, 10, 4;                              !- X,Y,Z Vertex 4 {m}

OS:Surface,
  {3fcf38b6-c8fb-4df7-baee-cddc3ddf72a2}, !- Handle
  Surface 24,                             !- Name
  RoofCeiling,                            !- Surface Type
  ,                                       !- Construction Name
  {3ab3bb50-09fd-413d-930f-36aec3f39117}, !- Space Name
  Outdoors,                               !- Outside Boundary Condition
  ,                                       !- Outside Boundary Condition Object
  SunExposed,                             !- Sun Exposure
  WindExposed,                            !- Wind Exposure
  ,                                       !- View Factor to Ground
  ,                                       !- Number of Vertices
  90, 10, 4,                              !- X,Y,Z Vertex 1 {m}
  10, 10, 4,                              !- X,Y,Z Vertex 2 {m}
  0, 0, 4,                                !- X,Y,Z Vertex 3 {m}
  100, 0, 4;                              !- X,Y,Z Vertex 4 {m}

OS:Space,
  {3af7fe1f-5279-4890-a429-503b0b21b47e}, !- Handle
  Story 1 Core Space,                     !- Name
  ,                                       !- Space Type Name
  ,                                       !- Default Construction Set Name
  ,                                       !- Default Schedule Set Name
  -0,                                     !- Direction of Relative North {deg}
  10,                                     !- X Origin {m}
  10,                                     !- Y Origin {m}
  0,                                      !- Z Origin {m}
  {5da15889-4267-4145-95f2-1a11596491ef}, !- Building Story Name
  {200dffd6-bf40-41dc-8329-cf011c520646}; !- Thermal Zone Name

OS:Surface,
  {94b0a8e6-8721-42ec-9ff3-08d65d76d8dc}, !- Handle
  Surface 25,                             !- Name
  Floor,                                  !- Surface Type
  ,                                       !- Construction Name
  {3af7fe1f-5279-4890-a429-503b0b21b47e}, !- Space Name
  Ground,                                 !- Outside Boundary Condition
  ,                                       !- Outside Boundary Condition Object
  NoSun,                                  !- Sun Exposure
  NoWind,                                 !- Wind Exposure
  ,                                       !- View Factor to Ground
  ,                                       !- Number of Vertices
  0, 0, 0,                                !- X,Y,Z Vertex 1 {m}
  0, 30, 0,                               !- X,Y,Z Vertex 2 {m}
  80, 30, 0,                              !- X,Y,Z Vertex 3 {m}
  80, 0, 0;                               !- X,Y,Z Vertex 4 {m}

OS:Surface,
  {09ccd8a1-b184-40d2-a356-a981ea667ea3}, !- Handle
  Surface 26,                             !- Name
  Wall,                                   !- Surface Type
  ,                                       !- Construction Name
  {3af7fe1f-5279-4890-a429-503b0b21b47e}, !- Space Name
  Surface,                                !- Outside Boundary Condition
  {6c0a8045-2f86-4261-a120-7439144719cf}, !- Outside Boundary Condition Object
  NoSun,                                  !- Sun Exposure
  NoWind,                                 !- Wind Exposure
  ,                                       !- View Factor to Ground
  ,                                       !- Number of Vertices
  0, 30, 4,                               !- X,Y,Z Vertex 1 {m}
  0, 30, 0,                               !- X,Y,Z Vertex 2 {m}
  0, 0, 0,                                !- X,Y,Z Vertex 3 {m}
  0, 0, 4;                                !- X,Y,Z Vertex 4 {m}

OS:Surface,
  {b8bfe0f6-8ef2-4ee3-9c22-ac3b9758b735}, !- Handle
  Surface 27,                             !- Name
  Wall,                                   !- Surface Type
  ,                                       !- Construction Name
  {3af7fe1f-5279-4890-a429-503b0b21b47e}, !- Space Name
  Surface,                                !- Outside Boundary Condition
  {74c4bd2f-182c-4bfc-88ff-574e94153c29}, !- Outside Boundary Condition Object
  NoSun,                                  !- Sun Exposure
  NoWind,                                 !- Wind Exposure
  ,                                       !- View Factor to Ground
  ,                                       !- Number of Vertices
  80, 30, 4,                              !- X,Y,Z Vertex 1 {m}
  80, 30, 0,                              !- X,Y,Z Vertex 2 {m}
  0, 30, 0,                               !- X,Y,Z Vertex 3 {m}
  0, 30, 4;                               !- X,Y,Z Vertex 4 {m}

OS:Surface,
  {85eb95b4-80d4-422a-afd3-92682e90a896}, !- Handle
  Surface 28,                             !- Name
  Wall,                                   !- Surface Type
  ,                                       !- Construction Name
  {3af7fe1f-5279-4890-a429-503b0b21b47e}, !- Space Name