
OS:Version,
  {eb0bb7ae-7bba-400d-9c7c-5499344efb61}, !- Handle
  2.8.0;                                  !- Version Identifier

OS:BuildingStory,
  {b1c961f1-2b2e-4c5e-8ed2-8c714572e3f1}, !- Handle
  Story 1,                                !- Name
  0,                                      !- Nominal Z Coordinate {m}
  4,                                      !- Nominal Floor to Floor Height {m}
  ,                                       !- Default Construction Set Name
  ,                                       !- Default Schedule Set Name
  ;                                       !- Group Rendering Name

OS:Space,
  {2d857594-1c5f-45e1-af9c-bed22b3c36e3}, !- Handle
  Story 1 Core Space,                     !- Name
  ,                                       !- Space Type Name
  ,                                       !- Default Construction Set Name
  ,                                       !- Default Schedule Set Name
  -0,                                     !- Direction of Relative North {deg}
  0,                                      !- X Origin {m}
  0,                                      !- Y Origin {m}
  0,                                      !- Z Origin {m}
  {b1c961f1-2b2e-4c5e-8ed2-8c714572e3f1}, !- Building Story Name
  {7b2041f7-49d1-434e-a5f2-4ee4464b9588}; !- Thermal Zone Name

OS:Surface,
  {daba620c-3054-4be0-bfa7-cbec87cf0941}, !- Handle
  Surface 1,                              !- Name
  Floor,                                  !- Surface Type
  ,                                       !- Construction Name
  {2d857594-1c5f-45e1-af9c-bed22b3c36e3}, !- Space Name
  Ground,                                 !- Outside Boundary Condition
  ,                                       !- Outside Boundary Condition Object
  NoSun,                                  !- Sun Exposure
  NoWind,                                 !- Wind Exposure
  ,                                       !- View Factor to Ground
  ,                                       !- Number of Vertices
  0, 0, 0,                                !- X,Y,Z Vertex 1 {m}
  0, 50, 0,                               !- X,Y,Z Vertex 2 {m}
  100, 50, 0,                             !- X,Y,Z Vertex 3 {m}
  100, 0, 0;                              !- X,Y,Z Vertex 4 {m}

OS:Surface,
  {08352250-8427-4d0f-a3b0-389d7d077b7b}, !- Handle
  Surface 2,                              !- Name
  Wall,                                   !- Surface Type
  ,                                       !- Construction Name
  {2d857594-1c5f-45e1-af9c-bed22b3c36e3}, !- Space Name
  Outdoors,                               !- Outside Boundary Condition
  ,                                       !- Outside Boundary Condition Object
  SunExposed,                             !- Sun Exposure
  WindExposed,                            !- Wind Exposure
  ,                                       !- View Factor to Ground
  ,                                       !- Number of Vertices
  0, 50, 4,                               !- X,Y,Z Vertex 1 {m}
  0, 50, 0,                               !- X,Y,Z Vertex 2 {m}
  0, 0, 0,                                !- X,Y,Z Vertex 3 {m}
  0, 0, 4;                                !- X,Y,Z Vertex 4 {m}

OS:Surface,
  {308ae620-4821-4079-9123-691bcacabe4a}, !- Handle
  Surface 3,                              !- Name
  Wall,                                   !- Surface Type
  ,                                       !- Construction Name
  {2d857594-1c5f-45e1-af9c-bed22b3c36e3}, !- Space Name
  Outdoors,                               !- Outside Boundary Condition
  ,                                       !- Outside Boundary Condition Object
  SunExposed,                             !- Sun Exposure
  WindExposed,                            !- Wind Exposure
  ,                                       !- View Factor to Ground
  ,                                       !- Number of Vertices
  100, 50, 4,                             !- X,Y,Z Vertex 1 {m}
  100, 50, 0,                             !- X,Y,Z Vertex 2 {m}
  0, 50, 0,                               !- X,Y,Z Vertex 3 {m}
  0, 50, 4;                               !- X,Y,Z Vertex 4 {m}

OS:Surface,
  {f77d7c92-5fd8-4408-bc19-967de8cb220f}, !- Handle
  Surface 4,                              !- Name
  Wall,                                   !- Surface Type
  ,                                       !- Construction Name
  {2d857594-1c5f-45e1-af9c-bed22b3c36e3}, !- Space Name
  Outdoors,                               !- Outside Boundary Condition
  ,                                       !- Outside Boundary Condition Object
  SunExposed,                             !- Sun Exposure
  WindExposed,                            !- Wind Exposure
  ,                                       !- View Factor to Ground
  ,                                       !- Number of Vertices
  100, 0, 4,                              !- X,Y,Z Vertex 1 {m}
  100, 0, 0,                              !- X,Y,Z Vertex 2 {m}
  100, 50, 0,                             !- X,Y,Z Vertex 3 {m}
  100, 50, 4;                             !- X,Y,Z Vertex 4 {m}

OS:Surface,
  {1fc2da79-695c-4a5c-bb0f-7b40e60a3279}, !- Handle
  Surface 5,                              !- Name
  Wall,                                   !- Surface Type
  ,                                       !- Construction Name
  {2d857594-1c5f-45e1-af9c-bed22b3c36e3}, !- Space Name
  Outdoors,                               !- Outside Boundary Condition
  ,                                       !- Outside Boundary Condition Object
  SunExposed,                             !- Sun Exposure
  WindExposed,                            !- Wind Exposure
  ,                                       !- View Factor to Ground
  ,                                       !- Number of Vertices
  0, 0, 4,                                !- X,Y,Z Vertex 1 {m}
  0, 0, 0,                                !- X,Y,Z Vertex 2 {m}
  100, 0, 0,                              !- X,Y,Z Vertex 3 {m}
  100, 0, 4;                              !- X,Y,Z Vertex 4 {m}

OS:Surface,
  {8f52eb1f-dfb1-4e69-b856-3d5da48acb6e}, !- Handle
  Surface 6,                              !- Name
  RoofCeiling,                            !- Surface Type
  ,                                       !- Construction Name
  {2d857594-1c5f-45e1-af9c-bed22b3c36e3}, !- Space Name
  Surface,                                !- Outside Boundary Condition
  {23657aa6-256e-471c-80c1-503fcb9704f0}, !- Outside Boundary Condition Object
  NoSun,                                  !- Sun Exposure
  NoWind,                                 !- Wind Exposure
  ,                                       !- View Factor to Ground
  ,                                       !- Number of Vertices
  100, 0, 4,                              !- X,Y,Z Vertex 1 {m}
  100, 50, 4,                             !- X,Y,Z Vertex 2 {m}
  0, 50, 4,                               !- X,Y,Z Vertex 3 {m}
  0, 0, 4;                                !- X,Y,Z Vertex 4 {m}

OS:BuildingStory,
  {9af7a8a5-4cf3-4fde-8e99-45e358384da2}, !- Handle
  Story 2,                                !- Name
  4,                                      !- Nominal Z Coordinate {m}
  4,                                      !- Nominal Floor to Floor Height {m}
  ,                                       !- Default Construction Set Name
  ,                                       !- Default Schedule Set Name
  ;                                       !- Group Rendering Name

OS:Space,
  {41594499-553b-4f50-ba0f-df722a1916f9}, !- Handle
  Story 2 Core Space,                     !- Name
  ,                                       !- Space Type Name
  ,                                       !- Default Construction Set Name
  ,                                       !- Default Schedule Set Name
  -0,                                     !- Direction of Relative North {deg}
  0,                                      !- X Origin {m}
  0,                                      !- Y Origin {m}
  4,                                      !- Z Origin {m}
  {9af7a8a5-4cf3-4fde-8e99-45e358384da2}, !- Building Story Name
  {b0bc4e1b-e935-4d6f-bc1d-87ed0ac02ba8}; !- Thermal Zone Name

OS:Surface,
  {23657aa6-256e-471c-80c1-503fcb9704f0}, !- Handle
  Surface 7,                              !- Name
  Floor,                                  !- Surface Type
  ,                                       !- Construction Name
  {41594499-553b-4f50-ba0f-df722a1916f9}, !- Space Name
  Surface,                                !- Outside Boundary Condition
  {8f52eb1f-dfb1-4e69-b856-3d5da48acb6e}, !- Outside Boundary Condition Object
  NoSun,                                  !- Sun Exposure
  NoWind,                                 !- Wind Exposure
  ,                                       !- View Factor to Ground
  ,                                       !- Number of Vertices
  0, 0, 0,                                !- X,Y,Z Vertex 1 {m}
  0, 50, 0,                               !- X,Y,Z Vertex 2 {m}
  100, 50, 0,                             !- X,Y,Z Vertex 3 {m}
  100, 0, 0;                              !- X,Y,Z Vertex 4 {m}

OS:Surface,
  {6503663d-9122-4135-b8ad-c8220a7d9406}, !- Handle
  Surface 8,                              !- Name
  Wall,                                   !- Surface Type
  ,                                       !- Construction Name
  {41594499-553b-4f50-ba0f-df722a1916f9}, !- Space Name
  Outdoors,                               !- Outside Boundary Condition
  ,                                       !- Outside Boundary Condition Object
  SunExposed,                             !- Sun Exposure
  WindExposed,                            !- Wind Exposure
  ,                                       !- View Factor to Ground
  ,                                       !- Number of Vertices
  0, 50, 4,                               !- X,Y,Z Vertex 1 {m}
  0, 50, 0,                               !- X,Y,Z Vertex 2 {m}
  0, 0, 0,                                !- X,Y,Z Vertex 3 {m}
  0, 0, 4;                                !- X,Y,Z Vertex 4 {m}

OS:Surface,
  {e49874b8-8a29-4897-a9dd-f4862038b475}, !- Handle
  Surface 9,                              !- Name
  Wall,                                   !- Surface Type
  ,                                       !- Construction Name
  {41594499-553b-4f50-ba0f-df722a1916f9}, !- Space Name
  Outdoors,                               !- Outside Boundary Condition
  ,                                       !- Outside Boundary Condition Object
  SunExposed,                             !- Sun Exposure
  WindExposed,                            !- Wind Exposure
  ,                                       !- View Factor to Ground
  ,                                       !- Number of Vertices
  100, 50, 4,                             !- X,Y,Z Vertex 1 {m}
  100, 50, 0,                             !- X,Y,Z Vertex 2 {m}
  0, 50, 0,                               !- X,Y,Z Vertex 3 {m}
  0, 50, 4;                               !- X,Y,Z Vertex 4 {m}

OS:Surface,
  {74f8cb0c-1f73-4ace-9a3b-0614eb72d803}, !- Handle
  Surface 10,                             !- Name
  Wall,                                   !- Surface Type
  ,                                       !- Construction Name
  {41594499-553b-4f50-ba0f-df722a1916f9}, !- Space Name
  Outdoors,                               !- Outside Boundary Condition
  ,                                       !- Outside Boundary Condition Object
  SunExposed,                             !- Sun Exposure
  WindExposed,                            !- Wind Exposure
  ,                                       !- View Factor to Ground
  ,                                       !- Number of Vertices
  100, 0, 4,                              !- X,Y,Z Vertex 1 {m}
  100, 0, 0,                              !- X,Y,Z Vertex 2 {m}
  100, 50, 0,                             !- X,Y,Z Vertex 3 {m}
  100, 50, 4;                             !- X,Y,Z Vertex 4 {m}

OS:Surface,
  {9d927a83-f8fe-4a32-b1f3-56d1d698bb5d}, !- Handle
  Surface 11,                             !- Name
  Wall,                                   !- Surface Type
  ,                                       !- Construction Name
  {41594499-553b-4f50-ba0f-df722a1916f9}, !- Space Name
  Outdoors,                               !- Outside Boundary Condition
  ,                                       !- Outside Boundary Condition Object
  SunExposed,                             !- Sun Exposure
  WindExposed,                            !- Wind Exposure
  ,                                       !- View Factor to Ground
  ,                                       !- Number of Vertices
  0, 0, 4,                                !- X,Y,Z Vertex 1 {m}
  0, 0, 0,                                !- X,Y,Z Vertex 2 {m}
  100, 0, 0,                              !- X,Y,Z Vertex 3 {m}
  100, 0, 4;                              !- X,Y,Z Vertex 4 {m}

OS:Surface,
  {211651cc-298c-4bf4-adeb-ec961a57da13}, !- Handle
  Surface 12,                             !- Name
  RoofCeiling,                            !- Surface Type
  ,                                       !- Construction Name
  {41594499-553b-4f50-ba0f-df722a1916f9}, !- Space Name
  Outdoors,                               !- Outside Boundary Condition
  ,                                       !- Outside Boundary Condition Object
  SunExposed,                             !- Sun Exposure
  WindExposed,                            !- Wind Exposure
  ,                                       !- View Factor to Ground
  ,                                       !- Number of Vertices
  100, 0, 4,                              !- X,Y,Z Vertex 1 {m}
  100, 50, 4,                             !- X,Y,Z Vertex 2 {m}
  0, 50, 4,                               !- X,Y,Z Vertex 3 {m}
  0, 0, 4;                                !- X,Y,Z Vertex 4 {m}

OS:ThermalZone,
  {7b2041f7-49d1-434e-a5f2-4ee4464b9588}, !- Handle
  Story 1 Core Thermal Zone,              !- Name
  ,                                       !- Multiplier
  ,                                       !- Ceiling Height {m}
  ,                                       !- Volume {m3}
  ,                                       !- Floor Area {m2}
  ,                                       !- Zone Inside Convection Algorithm
  ,                                       !- Zone Outside Convection Algorithm
  ,                                       !- Zone Conditioning Equipment List Name
  {0b4c8be3-550f-4b74-acbc-1427d58d5229}, !- Zone Air Inlet Port List
  {c2081b1a-398e-4a8c-9690-28a3f4c77ed8}, !- Zone Air Exhaust Port List
  {1f806ef4-88d5-4ab9-9611-054d194270e6}, !- Zone Air Node Name
  {4ca1e6f0-5d49-43e4-a62a-ffa64059c786}, !- Zone Return Air Port List
  ,                                       !- Primary Daylighting Control Name
  ,                                       !- Fraction of Zone Controlled by Primary Daylighting Control
  ,                                       !- Secondary Daylighting Control Name
  ,                                       !- Fraction of Zone Controlled by Secondary Daylighting Control
  ,                                       !- Illuminance Map Name
  ,                                       !- Group Rendering Name
  {45fa92b3-c0d6-456a-9383-61b00c09a703}, !- Thermostat Name
  No;                                     !- Use Ideal Air Loads

OS:Node,
  {61fdc4b5-624d-4d13-b3b4-868b9711c10a}, !- Handle
  Node 1,                                 !- Name
  {1f806ef4-88d5-4ab9-9611-054d194270e6}, !- Inlet Port
  ;                                       !- Outlet Port

OS:Connection,
  {1f806ef4-88d5-4ab9-9611-054d194270e6}, !- Handle
  {33ea083a-f691-4c70-a46b-31cc2ae35edb}, !- Name
  {7b2041f7-49d1-434e-a5f2-4ee4464b9588}, !- Source Object
  11,                                     !- Outlet Port
  {61fdc4b5-624d-4d13-b3b4-868b9711c10a}, !- Target Object
  2;                                      !- Inlet Port

OS:PortList,
  {0b4c8be3-550f-4b74-acbc-1427d58d5229}, !- Handle
  {478ce052-e0f9-48b7-9b0b-9232efd129ed}, !- Name
  {7b2041f7-49d1-434e-a5f2-4ee4464b9588}, !- HVAC Component
  {225d31af-8016-48b7-ae40-1fcf2408cb0b}; !- Port 1

OS:PortList,
  {c2081b1a-398e-4a8c-9690-28a3f4c77ed8}, !- Handle
  {2d8d0730-4738-4d16-9d82-f3cbea1d80af}, !- Name
  {7b2041f7-49d1-434e-a5f2-4ee4464b9588}; !- HVAC Component

OS:PortList,
  {4ca1e6f0-5d49-43e4-a62a-ffa64059c786}, !- Handle
  {113ea526-39d3-409a-8640-c2f1117f7559}, !- Name
  {7b2041f7-49d1-434e-a5f2-4ee4464b9588}, !- HVAC Component
  {be81537e-c62a-42f6-ba0a-84fbf77f10fe}; !- Port 1

OS:Sizing:Zone,
  {97cc43a3-a934-4b7a-a0c3-f8100a57997a}, !- Handle
  {7b2041f7-49d1-434e-a5f2-4ee4464b9588}, !- Zone or ZoneList Name
  SupplyAirTemperature,                   !- Zone Cooling Design Supply Air Temperature Input Method
  14,                                     !- Zone Cooling Design Supply Air Temperature {C}
  11.11,                                  !- Zone Cooling Design Supply Air Temperature Difference {deltaC}
  SupplyAirTemperature,                   !- Zone Heating Design Supply Air Temperature Input Method
  40,                                     !- Zone Heating Design Supply Air Temperature {C}
  11.11,                                  !- Zone Heating Design Supply Air Temperature Difference {deltaC}
  0.0085,                                 !- Zone Cooling Design Supply Air Humidity Ratio {kg-H2O/kg-air}
  0.008,                                  !- Zone Heating Design Supply Air Humidity Ratio {kg-H2O/kg-air}
  ,                                       !- Zone Heating Sizing Factor
  ,                                       !- Zone Cooling Sizing Factor
  DesignDay,                              !- Cooling Design Air Flow Method
  ,                                       !- Cooling Design Air Flow Rate {m3/s}
  ,                                       !- Cooling Minimum Air Flow per Zone Floor Area {m3/s-m2}
  ,                                       !- Cooling Minimum Air Flow {m3/s}
  ,                                       !- Cooling Minimum Air Flow Fraction
  DesignDay,                              !- Heating Design Air Flow Method
  ,                                       !- Heating Design Air Flow Rate {m3/s}
  ,                                       !- Heating Maximum Air Flow per Zone Floor Area {m3/s-m2}
  ,                                       !- Heating Maximum Air Flow {m3/s}
  ,                                       !- Heating Maximum Air Flow Fraction
  ,                                       !- Design Zone Air Distribution Effectiveness in Cooling Mode
  ,                                       !- Design Zone Air Distribution Effectiveness in Heating Mode
  No,                                     !- Account for Dedicated Outdoor Air System
  NeutralSupplyAir,                       !- Dedicated Outdoor Air System Control Strategy
  autosize,                               !- Dedicated Outdoor Air Low Setpoint Temperature for Design {C}
  autosize;                               !- Dedicated Outdoor Air High Setpoint Temperature for Design {C}

OS:ZoneHVAC:EquipmentList,
  {f1c999c5-6be5-466e-bc4b-a81658261d18}, !- Handle
  Zone HVAC Equipment List 1,             !- Name
  {7b2041f7-49d1-434e-a5f2-4ee4464b9588}, !- Thermal Zone
  ,                                       !- Load Distribution Scheme
  {2a306cf0-4668-46ce-9c9d-b55c09065ca3}, !- Zone Equipment 1
  1,                                      !- Zone Equipment Cooling Sequence 1
  1,                                      !- Zone Equipment Heating or No-Load Sequence 1
  ,                                       !- Zone Equipment Sequential Cooling Fraction 1
  ;                                       !- Zone Equipment Sequential Heating Fraction 1

OS:ThermalZone,
  {b0bc4e1b-e935-4d6f-bc1d-87ed0ac02ba8}, !- Handle
  Story 2 Core Thermal Zone,              !- Name
  ,                                       !- Multiplier
  ,                                       !- Ceiling Height {m}
  ,                                       !- Volume {m3}
  ,                                       !- Floor Area {m2}
  ,                                       !- Zone Inside Convection Algorithm
  ,                                       !- Zone Outside Convection Algorithm
  ,                                       !- Zone Conditioning Equipment List Name
  {8974d966-35b9-4714-b81e-11ecee23a557}, !- Zone Air Inlet Port List
  {22f162c0-93f3-448a-a41a-f774f5ffd50e}, !- Zone Air Exhaust Port List
  {d2015eec-905c-41d9-bde7-8291261cc1b7}, !- Zone Air Node Name
  {d27bfc53-914f-4a06-ac2f-c78035d62c03}, !- Zone Return Air Port List
  ,                                       !- Primary Daylighting Control Name
  ,                                       !- Fraction of Zone Controlled by Primary Daylighting Control
  ,                                       !- Secondary Daylighting Control Name
  ,                                       !- Fraction of Zone Controlled by Secondary Daylighting Control
  ,                                       !- Illuminance Map Name
  ,                                       !- Group Rendering Name
  {aaf21091-a25a-48f3-993a-eba6dde8e56b}, !- Thermostat Name
  No;                                     !- Use Ideal Air Loads

OS:Node,
  {96e569da-1997-4968-875e-ec12399a3bc4}, !- Handle
  Node 2,                                 !- Name
  {d2015eec-905c-41d9-bde7-8291261cc1b7}, !- Inlet Port
  ;                                       !- Outlet Port

OS:Connection,
  {d2015eec-905c-41d9-bde7-8291261cc1b7}, !- Handle
  {add1b74f-0969-424a-a4cd-4e7568013d3a}, !- Name
  {b0bc4e1b-e935-4d6f-bc1d-87ed0ac02ba8}, !- Source Object
  11,                                     !- Outlet Port
  {96e569da-1997-4968-875e-ec12399a3bc4}, !- Target Object
  2;                                      !- Inlet Port

OS:PortList,
  {8974d966-35b9-4714-b81e-11ecee23a557}, !- Handle
  {75a8a186-79e8-4435-a0de-a77080b39db1}, !- Name
  {b0bc4e1b-e935-4d6f-bc1d-87ed0ac02ba8}, !- HVAC Component
  {7fb3dc18-9289-4c7b-b0eb-992d419f953c}; !- Port 1

OS:PortList,
  {22f162c0-93f3-448a-a41a-f774f5ffd50e}, !- Handle
  {118caa46-7a70-4334-a5de-a2cb5e08ad09}, !- Name
  {b0bc4e1b-e935-4d6f-bc1d-87ed0ac02ba8}; !- HVAC Component

OS:PortList,
  {d27bfc53-914f-4a06-ac2f-c78035d62c03}, !- Handle
  {e9bef1a4-cfe5-4f1b-89fa-2879f175b025}, !- Name
  {b0bc4e1b-e935-4d6f-bc1d-87ed0ac02ba8}, !- HVAC Component
  {773b9810-742b-48c3-8f8f-d9b665a40803}; !- Port 1

OS:Sizing:Zone,
  {ce189d6e-f75d-4d43-91fd-bd72e34678fa}, !- Handle
  {b0bc4e1b-e935-4d6f-bc1d-87ed0ac02ba8}, !- Zone or ZoneList Name
  SupplyAirTemperature,                   !- Zone Cooling Design Supply Air Temperature Input Method
  14,                                     !- Zone Cooling Design Supply Air Temperature {C}
  11.11,                                  !- Zone Cooling Design Supply Air Temperature Difference {deltaC}
  SupplyAirTemperature,                   !- Zone Heating Design Supply Air Temperature Input Method
  40,                                     !- Zone Heating Design Supply Air Temperature {C}
  11.11,                                  !- Zone Heating Design Supply Air Temperature Difference {deltaC}
  0.0085,                                 !- Zone Cooling Design Supply Air Humidity Ratio {kg-H2O/kg-air}
  0.008,                                  !- Zone Heating Design Supply Air Humidity Ratio {kg-H2O/kg-air}
  ,                                       !- Zone Heating Sizing Factor
  ,                                       !- Zone Cooling Sizing Factor
  DesignDay,                              !- Cooling Design Air Flow Method
  ,                                       !- Cooling Design Air Flow Rate {m3/s}
  ,                                       !- Cooling Minimum Air Flow per Zone Floor Area {m3/s-m2}
  ,                                       !- Cooling Minimum Air Flow {m3/s}
  ,                                       !- Cooling Minimum Air Flow Fraction
  DesignDay,                              !- Heating Design Air Flow Method
  ,                                       !- Heating Design Air Flow Rate {m3/s}
  ,                                       !- Heating Maximum Air Flow per Zone Floor Area {m3/s-m2}
  ,                                       !- Heating Maximum Air Flow {m3/s}
  ,                                       !- Heating Maximum Air Flow Fraction
  ,                                       !- Design Zone Air Distribution Effectiveness in Cooling Mode
  ,                                       !- Design Zone Air Distribution Effectiveness in Heating Mode
  No,                                     !- Account for Dedicated Outdoor Air System
  NeutralSupplyAir,                       !- Dedicated Outdoor Air System Control Strategy
  autosize,                               !- Dedicated Outdoor Air Low Setpoint Temperature for Design {C}
  autosize;                               !- Dedicated Outdoor Air High Setpoint Temperature for Design {C}

OS:ZoneHVAC:EquipmentList,
  {8ad3b871-703f-4c02-80c4-97f1b946b102}, !- Handle
  Zone HVAC Equipment List 2,             !- Name
  {b0bc4e1b-e935-4d6f-bc1d-87ed0ac02ba8}, !- Thermal Zone
  ,                                       !- Load Distribution Scheme
  {a8910317-8f24-4f76-8d01-7d80f302b635}, !- Zone Equipment 1
  1,                                      !- Zone Equipment Cooling Sequence 1
  1,                                      !- Zone Equipment Heating or No-Load Sequence 1
  ,                                       !- Zone Equipment Sequential Cooling Fraction 1
  ;                                       !- Zone Equipment Sequential Heating Fraction 1

OS:SubSurface,
  {887429c9-bd81-45a0-b7d5-60d3bece6273}, !- Handle
  Sub Surface 1,                          !- Name
  FixedWindow,                            !- Sub Surface Type
  ,                                       !- Construction Name
  {9d927a83-f8fe-4a32-b1f3-56d1d698bb5d}, !- Surface Name
  ,                                       !- Outside Boundary Condition Object
  ,                                       !- View Factor to Ground
  ,                                       !- Shading Control Name
  ,                                       !- Frame and Divider Name
  ,                                       !- Multiplier
  ,                                       !- Number of Vertices
  0.0254, 0, 2.60081321311226,            !- X,Y,Z Vertex 1 {m}
  0.0254, 0, 1,                           !- X,Y,Z Vertex 2 {m}
  99.9746, 0, 1,                          !- X,Y,Z Vertex 3 {m}
  99.9746, 0, 2.60081321311226;           !- X,Y,Z Vertex 4 {m}

OS:SubSurface,
  {496567d8-7970-4a19-b2b7-3726d46ee1c5}, !- Handle
  Sub Surface 2,                          !- Name
  FixedWindow,                            !- Sub Surface Type
  ,                                       !- Construction Name
  {74f8cb0c-1f73-4ace-9a3b-0614eb72d803}, !- Surface Name
  ,                                       !- Outside Boundary Condition Object
  ,                                       !- View Factor to Ground
  ,                                       !- Shading Control Name
  ,                                       !- Frame and Divider Name
  ,                                       !- Multiplier
  ,                                       !- Number of Vertices
  100, 0.0254, 2.60162725328934,          !- X,Y,Z Vertex 1 {m}
  100, 0.0254, 1,                         !- X,Y,Z Vertex 2 {m}
  100, 49.9746, 1,                        !- X,Y,Z Vertex 3 {m}
  100, 49.9746, 2.60162725328934;         !- X,Y,Z Vertex 4 {m}

OS:SubSurface,
  {c943189e-c3c9-4141-9338-8be08d66eb72}, !- Handle
  Sub Surface 3,                          !- Name
  FixedWindow,                            !- Sub Surface Type
  ,                                       !- Construction Name
  {6503663d-9122-4135-b8ad-c8220a7d9406}, !- Surface Name
  ,                                       !- Outside Boundary Condition Object
  ,                                       !- View Factor to Ground
  ,                                       !- Shading Control Name
  ,                                       !- Frame and Divider Name
  ,                                       !- Multiplier
  ,                                       !- Number of Vertices
  0, 49.9746, 2.60162725328934,           !- X,Y,Z Vertex 1 {m}
  0, 49.9746, 1,                          !- X,Y,Z Vertex 2 {m}
  0, 0.0254000000000048, 1,               !- X,Y,Z Vertex 3 {m}
  0, 0.0254000000000048, 2.60162725328934; !- X,Y,Z Vertex 4 {m}

OS:SubSurface,
  {e666f6f0-bb14-448e-95b8-c65fe8917bf4}, !- Handle
  Sub Surface 4,                          !- Name
  FixedWindow,                            !- Sub Surface Type
  ,                                       !- Construction Name
  {08352250-8427-4d0f-a3b0-389d7d077b7b}, !- Surface Name
  ,                                       !- Outside Boundary Condition Object
  ,                                       !- View Factor to Ground
  ,                                       !- Shading Control Name
  ,                                       !- Frame and Divider Name
  ,                                       !- Multiplier
  ,                                       !- Number of Vertices
  0, 49.9746, 2.60162725328934,           !- X,Y,Z Vertex 1 {m}
  0, 49.9746, 1,                          !- X,Y,Z Vertex 2 {m}
  0, 0.0254000000000048, 1,               !- X,Y,Z Vertex 3 {m}
  0, 0.0254000000000048, 2.60162725328934; !- X,Y,Z Vertex 4 {m}

OS:SubSurface,
  {05f856aa-7717-4378-9aa6-d130affe840a}, !- Handle
  Sub Surface 5,                          !- Name
  FixedWindow,                            !- Sub Surface Type
  ,                                       !- Construction Name
  {e49874b8-8a29-4897-a9dd-f4862038b475}, !- Surface Name
  ,                                       !- Outside Boundary Condition Object
  ,                                       !- View Factor to Ground
  ,                                       !- Shading Control Name