
OS:Version,
  {adad2f2b-ebb2-497e-8b00-9c1317e0023f}, !- Handle
  3.2.1;                                  !- Version Identifier

OS:BuildingStory,
  {95c9b50d-32a0-4231-bb58-8d7944ec9f2a}, !- Handle
  Story 1,                                !- Name
  0,                                      !- Nominal Z Coordinate {m}
  4,                                      !- Nominal Floor to Floor Height {m}
  ,                                       !- Default Construction Set Name
  ,                                       !- Default Schedule Set Name
  ;                                       !- Group Rendering Name

OS:Space,
  {42ef7008-7ce7-4681-bb13-1a01ce0abbee}, !- Handle
  Story 1 Core Space,                     !- Name
  ,                                       !- Space Type Name
  ,                                       !- Default Construction Set Name
  ,                                       !- Default Schedule Set Name
  -0,                                     !- Direction of Relative North {deg}
  0,                                      !- X Origin {m}
  0,                                      !- Y Origin {m}
  0,                                      !- Z Origin {m}
  {95c9b50d-32a0-4231-bb58-8d7944ec9f2a}, !- Building Story Name
  {b9c37002-e538-478c-806d-01ae66daee7e}; !- Thermal Zone Name

OS:Surface,
  {1d1e0faa-4802-4c4b-8921-3c135bd218d8}, !- Handle
  Surface 1,                              !- Name
  Floor,                                  !- Surface Type
  ,                                       !- Construction Name
  {42ef7008-7ce7-4681-bb13-1a01ce0abbee}, !- Space Name
  Ground,                                 !- Outside Boundary Condition
  ,                                       !- Outside Boundary Condition Object
  NoSun,                                  !- Sun Exposure
  NoWind,                                 !- Wind Exposure
  ,                                       !- View Factor to Ground
  ,                                       !- Number of Vertices
  0, 0, 0,                                !- X,Y,Z Vertex 1 {m}
  0, 50, 0,                               !- X,Y,Z Vertex 2 {m}
  100, 50, 0,                             !- X,Y,Z Vertex 3 {m}
  100, 0, 0;                              !- X,Y,Z Vertex 4 {m}

OS:Surface,
  {98e075e6-e63b-4126-aa85-3c0867c57a6a}, !- Handle
  Surface 2,                              !- Name
  Wall,                                   !- Surface Type
  ,                                       !- Construction Name
  {42ef7008-7ce7-4681-bb13-1a01ce0abbee}, !- Space Name
  Outdoors,                               !- Outside Boundary Condition
  ,                                       !- Outside Boundary Condition Object
  SunExposed,                             !- Sun Exposure
  WindExposed,                            !- Wind Exposure
  ,                                       !- View Factor to Ground
  ,                                       !- Number of Vertices
  0, 50, 4,                               !- X,Y,Z Vertex 1 {m}
  0, 50, 0,                               !- X,Y,Z Vertex 2 {m}
  0, 0, 0,                                !- X,Y,Z Vertex 3 {m}
  0, 0, 4;                                !- X,Y,Z Vertex 4 {m}

OS:Surface,
  {9e0facdb-f7f4-4d46-bab2-f594465c949b}, !- Handle
  Surface 3,                              !- Name
  Wall,                                   !- Surface Type
  ,                                       !- Construction Name
  {42ef7008-7ce7-4681-bb13-1a01ce0abbee}, !- Space Name
  Outdoors,                               !- Outside Boundary Condition
  ,                                       !- Outside Boundary Condition Object
  SunExposed,                             !- Sun Exposure
  WindExposed,                            !- Wind Exposure
  ,                                       !- View Factor to Ground
  ,                                       !- Number of Vertices
  100, 50, 4,                             !- X,Y,Z Vertex 1 {m}
  100, 50, 0,                             !- X,Y,Z Vertex 2 {m}
  0, 50, 0,                               !- X,Y,Z Vertex 3 {m}
  0, 50, 4;                               !- X,Y,Z Vertex 4 {m}

OS:Surface,
  {3549d0f1-ee7a-4df0-89bd-599ae8200a71}, !- Handle
  Surface 4,                              !- Name
  Wall,                                   !- Surface Type
  ,                                       !- Construction Name
  {42ef7008-7ce7-4681-bb13-1a01ce0abbee}, !- Space Name
  Outdoors,                               !- Outside Boundary Condition
  ,                                       !- Outside Boundary Condition Object
  SunExposed,                             !- Sun Exposure
  WindExposed,                            !- Wind Exposure
  ,                                       !- View Factor to Ground
  ,                                       !- Number of Vertices
  100, 0, 4,                              !- X,Y,Z Vertex 1 {m}
  100, 0, 0,                              !- X,Y,Z Vertex 2 {m}
  100, 50, 0,                             !- X,Y,Z Vertex 3 {m}
  100, 50, 4;                             !- X,Y,Z Vertex 4 {m}

OS:Surface,
  {9eed26ec-c59e-47d8-ade3-42269e5e6d06}, !- Handle
  Surface 5,                              !- Name
  Wall,                                   !- Surface Type
  ,                                       !- Construction Name
  {42ef7008-7ce7-4681-bb13-1a01ce0abbee}, !- Space Name
  Outdoors,                               !- Outside Boundary Condition
  ,                                       !- Outside Boundary Condition Object
  SunExposed,                             !- Sun Exposure
  WindExposed,                            !- Wind Exposure
  ,                                       !- View Factor to Ground
  ,                                       !- Number of Vertices
  0, 0, 4,                                !- X,Y,Z Vertex 1 {m}
  0, 0, 0,                                !- X,Y,Z Vertex 2 {m}
  100, 0, 0,                              !- X,Y,Z Vertex 3 {m}
  100, 0, 4;                              !- X,Y,Z Vertex 4 {m}

OS:Surface,
  {590d6466-003e-4f6a-9549-61a4abbe3ac5}, !- Handle
  Surface 6,                              !- Name
  RoofCeiling,                            !- Surface Type
  ,                                       !- Construction Name
  {42ef7008-7ce7-4681-bb13-1a01ce0abbee}, !- Space Name
  Outdoors,                               !- Outside Boundary Condition
  ,                                       !- Outside Boundary Condition Object
  SunExposed,                             !- Sun Exposure
  WindExposed,                            !- Wind Exposure
  ,                                       !- View Factor to Ground
  ,                                       !- Number of Vertices
  100, 0, 4,                              !- X,Y,Z Vertex 1 {m}
  100, 50, 4,                             !- X,Y,Z Vertex 2 {m}
  0, 50, 4,                               !- X,Y,Z Vertex 3 {m}
  0, 0, 4;                                !- X,Y,Z Vertex 4 {m}

OS:ThermalZone,
  {b9c37002-e538-478c-806d-01ae66daee7e}, !- Handle
  Story 1 Core Thermal Zone,              !- Name
  ,                                       !- Multiplier
  ,                                       !- Ceiling Height {m}
  ,                                       !- Volume {m3}
  ,                                       !- Floor Area {m2}
  ,                                       !- Zone Inside Convection Algorithm
  ,                                       !- Zone Outside Convection Algorithm
  ,                                       !- Zone Conditioning Equipment List Name
  {c72bfa0f-c369-4d4c-b3a3-894638ac0f68}, !- Zone Air Inlet Port List
  {f38b49f1-ddd8-44bd-bb49-354408b3a581}, !- Zone Air Exhaust Port List
  {235f510f-fae3-4f0b-b413-a5b7cc8db85e}, !- Zone Air Node Name
  {4922f148-0acd-4e17-9682-4377753469fa}, !- Zone Return Air Port List
  ,                                       !- Primary Daylighting Control Name
  ,                                       !- Fraction of Zone Controlled by Primary Daylighting Control
  ,                                       !- Secondary Daylighting Control Name
  ,                                       !- Fraction of Zone Controlled by Secondary Daylighting Control
  ,                                       !- Illuminance Map Name
  ,                                       !- Group Rendering Name
  {4ca2d356-0bee-4782-9b95-ee14d567378b}, !- Thermostat Name
  No;                                     !- Use Ideal Air Loads

OS:Node,
  {fd5ada02-ca6f-45f0-88b0-bcec6529670a}, !- Handle
  Node 1,                                 !- Name
  {235f510f-fae3-4f0b-b413-a5b7cc8db85e}, !- Inlet Port
  ;                                       !- Outlet Port

OS:Connection,
  {235f510f-fae3-4f0b-b413-a5b7cc8db85e}, !- Handle
  {b9c37002-e538-478c-806d-01ae66daee7e}, !- Source Object
  11,                                     !- Outlet Port
  {fd5ada02-ca6f-45f0-88b0-bcec6529670a}, !- Target Object
  2;                                      !- Inlet Port

OS:PortList,
  {c72bfa0f-c369-4d4c-b3a3-894638ac0f68}, !- Handle
  {b9c37002-e538-478c-806d-01ae66daee7e}; !- HVAC Component

OS:PortList,
  {f38b49f1-ddd8-44bd-bb49-354408b3a581}, !- Handle
  {b9c37002-e538-478c-806d-01ae66daee7e}; !- HVAC Component

OS:PortList,
  {4922f148-0acd-4e17-9682-4377753469fa}, !- Handle
  {b9c37002-e538-478c-806d-01ae66daee7e}; !- HVAC Component

OS:Sizing:Zone,
  {9c9b5516-8b48-4f4e-aa93-343cd711686d}, !- Handle
  {b9c37002-e538-478c-806d-01ae66daee7e}, !- Zone or ZoneList Name
  SupplyAirTemperature,                   !- Zone Cooling Design Supply Air Temperature Input Method
  14,                                     !- Zone Cooling Design Supply Air Temperature {C}
  11.11,                                  !- Zone Cooling Design Supply Air Temperature Difference {deltaC}
  SupplyAirTemperature,                   !- Zone Heating Design Supply Air Temperature Input Method
  40,                                     !- Zone Heating Design Supply Air Temperature {C}
  11.11,                                  !- Zone Heating Design Supply Air Temperature Difference {deltaC}
  0.0085,                                 !- Zone Cooling Design Supply Air Humidity Ratio {kg-H2O/kg-air}
  0.008,                                  !- Zone Heating Design Supply Air Humidity Ratio {kg-H2O/kg-air}
  ,                                       !- Zone Heating Sizing Factor
  ,                                       !- Zone Cooling Sizing Factor
  DesignDay,                              !- Cooling Design Air Flow Method
  ,                                       !- Cooling Design Air Flow Rate {m3/s}
  ,                                       !- Cooling Minimum Air Flow per Zone Floor Area {m3/s-m2}
  ,                                       !- Cooling Minimum Air Flow {m3/s}
  ,                                       !- Cooling Minimum Air Flow Fraction
  DesignDay,                              !- Heating Design Air Flow Method
  ,                                       !- Heating Design Air Flow Rate {m3/s}
  ,                                       !- Heating Maximum Air Flow per Zone Floor Area {m3/s-m2}
  ,                                       !- Heating Maximum Air Flow {m3/s}
  ,                                       !- Heating Maximum Air Flow Fraction
  No,                                     !- Account for Dedicated Outdoor Air System
  NeutralSupplyAir,                       !- Dedicated Outdoor Air System Control Strategy
  autosize,                               !- Dedicated Outdoor Air Low Setpoint Temperature for Design {C}
  autosize;                               !- Dedicated Outdoor Air High Setpoint Temperature for Design {C}

OS:ZoneHVAC:EquipmentList,
  {b64cebd8-5167-48a4-90e7-53d4b8eba4aa}, !- Handle
  Zone HVAC Equipment List 1,             !- Name
  {b9c37002-e538-478c-806d-01ae66daee7e}; !- Thermal Zone

OS:SubSurface,
  {80e4ea05-585b-4d50-aea3-a23f25812219}, !- Handle
  Sub Surface 1,                          !- Name
  FixedWindow,                            !- Sub Surface Type
  ,                                       !- Construction Name
  {9eed26ec-c59e-47d8-ade3-42269e5e6d06}, !- Surface Name
  ,                                       !- Outside Boundary Condition Object
  ,                                       !- View Factor to Ground
  ,                                       !- Frame and Divider Name
  ,                                       !- Multiplier
  ,                                       !- Number of Vertices
  0.0254, 0, 2.60081321311226,            !- X,Y,Z Vertex 1 {m}
  0.0254, 0, 1,                           !- X,Y,Z Vertex 2 {m}
  99.9746, 0, 1,                          !- X,Y,Z Vertex 3 {m}
  99.9746, 0, 2.60081321311226;           !- X,Y,Z Vertex 4 {m}

OS:SubSurface,
  {3122eaf1-5589-47a0-bf0e-b597f668a96f}, !- Handle
  Sub Surface 2,                          !- Name
  FixedWindow,                            !- Sub Surface Type
  ,                                       !- Construction Name
  {3549d0f1-ee7a-4df0-89bd-599ae8200a71}, !- Surface Name
  ,                                       !- Outside Boundary Condition Object
  ,                                       !- View Factor to Ground
  ,                                       !- Frame and Divider Name
  ,                                       !- Multiplier
  ,                                       !- Number of Vertices
  100, 0.0254, 2.60162725328934,          !- X,Y,Z Vertex 1 {m}
  100, 0.0254, 1,                         !- X,Y,Z Vertex 2 {m}
  100, 49.9746, 1,                        !- X,Y,Z Vertex 3 {m}
  100, 49.9746, 2.60162725328934;         !- X,Y,Z Vertex 4 {m}

OS:SubSurface,
  {75526deb-6843-4d35-9d77-bc77fabe8fe3}, !- Handle
  Sub Surface 3,                          !- Name
  FixedWindow,                            !- Sub Surface Type
  ,                                       !- Construction Name
  {9e0facdb-f7f4-4d46-bab2-f594465c949b}, !- Surface Name
  ,                                       !- Outside Boundary Condition Object
  ,                                       !- View Factor to Ground
  ,                                       !- Frame and Divider Name
  ,                                       !- Multiplier
  ,                                       !- Number of Vertices
  99.9746, 50, 2.60081321311226,          !- X,Y,Z Vertex 1 {m}
  99.9746, 50, 1,                         !- X,Y,Z Vertex 2 {m}
  0.0253999999999905, 50, 1,              !- X,Y,Z Vertex 3 {m}
  0.0253999999999905, 50, 2.60081321311226; !- X,Y,Z Vertex 4 {m}

OS:SubSurface,
  {9efe6361-b235-4381-8f2b-6706ef382af5}, !- Handle
  Sub Surface 4,                          !- Name
  FixedWindow,                            !- Sub Surface Type
  ,                                       !- Construction Name
  {98e075e6-e63b-4126-aa85-3c0867c57a6a}, !- Surface Name
  ,                                       !- Outside Boundary Condition Object
  ,                                       !- View Factor to Ground
  ,                                       !- Frame and Divider Name
  ,                                       !- Multiplier
  ,                                       !- Number of Vertices
  0, 49.9746, 2.60162725328934,           !- X,Y,Z Vertex 1 {m}
  0, 49.9746, 1,                          !- X,Y,Z Vertex 2 {m}
  0, 0.0254000000000048, 1,               !- X,Y,Z Vertex 3 {m}
  0, 0.0254000000000048, 2.60162725328934; !- X,Y,Z Vertex 4 {m}

OS:Schedule:Ruleset,
  {49b80e7f-8b87-4b82-86ee-ce7b7ada1a6e}, !- Handle
  Cooling Sch,                            !- Name
  {a6d3b739-9a66-45ad-819f-3e9e743ad92c}, !- Schedule Type Limits Name
  {ed892849-d4a1-41f9-9535-0b92afd493f7}; !- Default Day Schedule Name

OS:Schedule:Day,
  {ed892849-d4a1-41f9-9535-0b92afd493f7}, !- Handle
  Cooling Sch Default,                    !- Name
  {a6d3b739-9a66-45ad-819f-3e9e743ad92c}, !- Schedule Type Limits Name
  ,                                       !- Interpolate to Timestep
  24,                                     !- Hour 1
  0,                                      !- Minute 1
  26;                                     !- Value Until Time 1

OS:Schedule:Ruleset,
  {8093b02b-07b9-4994-9048-b3df4a1954cb}, !- Handle
  Heating Sch,                            !- Name
  {a6d3b739-9a66-45ad-819f-3e9e743ad92c}, !- Schedule Type Limits Name
  {4026d4d6-4772-48ce-af65-4c8a9071ac5f}; !- Default Day Schedule Name

OS:Schedule:Day,
  {4026d4d6-4772-48ce-af65-4c8a9071ac5f}, !- Handle
  Heating Sch Default,                    !- Name
  {a6d3b739-9a66-45ad-819f-3e9e743ad92c}, !- Schedule Type Limits Name
  ,                                       !- Interpolate to Timestep
  24,                                     !- Hour 1
  0,                                      !- Minute 1
  19;                                     !- Value Until Time 1

OS:ThermostatSetpoint:DualSetpoint,
  {4ca2d356-0bee-4782-9b95-ee14d567378b}, !- Handle
  Thermostat Setpoint Dual Setpoint 1,    !- Name
  {8093b02b-07b9-4994-9048-b3df4a1954cb}, !- Heating Setpoint Temperature Schedule Name
  {49b80e7f-8b87-4b82-86ee-ce7b7ada1a6e}; !- Cooling Setpoint Temperature Schedule Name

OS:ScheduleTypeLimits,
  {a6d3b739-9a66-45ad-819f-3e9e743ad92c}, !- Handle
  Temperature,                            !- Name
  ,                                       !- Lower Limit Value
  ,                                       !- Upper Limit Value
  Continuous,                             !- Numeric Type
  Temperature;                            !- Unit Type

OS:DefaultConstructionSet,
  {d9bb866a-531a-4c21-8b6a-11c678af1599}, !- Handle
  ASHRAE_189.1-2009_ClimateZone 4-5 (mdoff)_ConstSet, !- Name
  {d7fdaf78-1ab8-46ed-98f9-e1647cd270e8}, !- Default Exterior Surface Constructions Name
  {06312742-321e-4842-a755-448fed6cf268}, !- Default Interior Surface Constructions Name
  {fa948e84-03e9-48c4-85e6-81621e80f752}, !- Default Ground Contact Surface Constructions Name
  {e2a0b6a3-d3fd-40e5-81a6-a8f80451f501}, !- Default Exterior SubSurface Constructions Name
  {c20b89dc-9070-4798-94f3-5799c65f9a79}, !- Default Interior SubSurface Constructions Name
  {f9f70de0-32e7-4827-ae67-87dd1a13f9ed}, !- Interior Partition Construction Name
  ,                                       !- Space Shading Construction Name
  ,                                       !- Building Shading Construction Name
  ,                                       !- Site Shading Construction Name
  ;                                       !- Adiabatic Surface Construction Name

OS:DefaultSurfaceConstructions,
  {d7fdaf78-1ab8-46ed-98f9-e1647cd270e8}, !- Handle
  ASHRAE_189.1-2009_ClimateZone 4-5 (mdoff)_Exterior_DefSurfCons, !- Name
  {6c372aa7-e9cb-4261-8a7c-479311358e31}, !- Floor Construction Name
  {fd8085a7-5eec-44fc-854d-8094e74640de}, !- Wall Construction Name
  {5b2d6a56-73d1-468c-b9c4-5d255192e45f}; !- Roof Ceiling Construction Name

OS:DefaultSurfaceConstructions,
  {06312742-321e-4842-a755-448fed6cf268}, !- Handle
  000_Interior_DefSurfCons,               !- Name
  {10487860-e5fc-44e4-971e-262448d4edc7}, !- Floor Construction Name
  {5f4d7384-ce23-4813-b933-dc56e8190f3f}, !- Wall Construction Name
  {2cf4aa90-8b12-488d-9177-e0029ecbcd23}; !- Roof Ceiling Construction Name

OS:DefaultSurfaceConstructions,
  {fa948e84-03e9-48c4-85e6-81621e80f752}, !- Handle
  000_Ground_DefSurfCons,                 !- Name
  {6c372aa7-e9cb-4261-8a7c-479311358e31}, !- Floor Construction Name
  {6c372aa7-e9cb-4261-8a7c-479311358e31}, !- Wall Construction Name
  {6c372aa7-e9cb-4261-8a7c-479311358e31}; !- Roof Ceiling Construction Name

OS:DefaultSubSurfaceConstructions,
  {e2a0b6a3-d3fd-40e5-81a6-a8f80451f501}, !- Handle
  ASHRAE_189.1-2009_ClimateZone 4-5 (mdoff)_Exterior_DefSubCons, !- Name
  {bb3cac36-88bb-416c-ab6a-6e6e9a892227}, !- Fixed Window Construction Name
  {bb3cac36-88bb-416c-ab6a-6e6e9a892227}, !- Operable Window Construction Name
  {03a9cb61-97d1-4a6c-8841-46b9885e4b29}, !- Door Construction Name
  {3033ec24-fe64-482a-b3d6-17864b89dd79}, !- Glass Door Construction Name
  ,                                       !- Overhead Door Construction Name
  {3033ec24-fe64-482a-b3d6-17864b89dd79}, !- Skylight Construction Name
  {0bd130d1-300e-4a40-a328-0dbbd0514f5c}, !- Tubular Daylight Dome Construction Name
  {0bd130d1-300e-4a40-a328-0dbbd0514f5c}; !- Tubular Daylight Diffuser Construction Name

OS:DefaultSubSurfaceConstructions,
  {c20b89dc-9070-4798-94f3-5799c65f9a79}, !- Handle
  000_Interior_DefSubCons,                !- Name
  {0bd130d1-300e-4a40-a328-0dbbd0514f5c}, !- Fixed Window Construction Name
  {0bd130d1-300e-4a40-a328-0dbbd0514f5c}, !- Operable Window Construction Name
  {6373845e-9869-4fc9-a793-626fa6aa121d}, !- Door Construction Name
  {3033ec24-fe64-482a-b3d6-17864b89dd79}, !- Glass Door Construction Name
  ,                                       !- Overhead Door Construction Name
  {3033ec24-fe64-482a-b3d6-17864b89dd79}, !- Skylight Construction Name
  {0bd130d1-300e-4a40-a328-0dbbd0514f5c}, !- Tubular Daylight Dome Construction Name
  {0bd130d1-300e-4a40-a328-0dbbd0514f5c}; !- Tubular Daylight Diffuser Construction Name

OS:Construction,
  {f9f70de0-32e7-4827-ae67-87dd1a13f9ed}, !- Handle
  000_Interior Partition,                 !- Name
  ,                                       !- Surface Rendering Name
  {c6af2955-7c35-49af-a19e-84e7fc9504b7}; !- Layer 1

OS:Construction,
  {6c372aa7-e9cb-4261-8a7c-479311358e31}, !- Handle
  000_ExtSlabCarpet_4in_ClimateZone 1-8,  !- Name
  ,                                       !- Surface Rendering Name
  {dfa17b84-1a2f-4d37-81bf-2f9417cb9852}, !- Layer 1
  {3414cc4b-e883-45a6-8209-6e2f45366d5e}; !- Layer 2

OS:Construction,
  {fd8085a7-5eec-44fc-854d-8094e74640de}, !- Handle
  ASHRAE_189.1-2009_ExtWall_SteelFrame_ClimateZone 4-8, !- Name
  ,                                       !- Surface Rendering Name
  {bf018dce-ad33-455a-97e5-fbc27cfbc909}, !- Layer 1
  {1694c0bb-cbd2-4dfe-8998-fbe31583ee7b}, !- Layer 2
  {804e1c50-1413-4281-a407-7cfca91bb6e2}; !- Layer 3

OS:Construction,
  {5b2d6a56-73d1-468c-b9c4-5d255192e45f}, !- Handle
  ASHRAE_189.1-2009_ExtRoof_IEAD_ClimateZone 2-5, !- Name
  ,                                       !- Surface Rendering Name
  {660e2f7a-9191-4634-b45e-cefd2059cde8}, !- Layer 1
  {32f33119-3a03-44ce-b34e-5dbe3e50f17b}, !- Layer 2
  {9d6b1825-7e49-48e6-b868-d7c01caf5362}; !- Layer 3

OS:Construction,
  {10487860-e5fc-44e4-971e-262448d4edc7}, !- Handle
  000_Interior Floor,                     !- Name
  ,                                       !- Surface Rendering Name
  {9ed652ad-99a8-413a-9bc2-e394500ee112}, !- Layer 1
  {2ca1c9d2-2e08-4ad3-9878-a1e90aa2ccce}, !- Layer 2
  {e8c9ac12-20ac-4237-ac82-f6e9c94d50fe}; !- Layer 3

OS:Construction,
  {5f4d7384-ce23-4813-b933-dc56e8190f3f}, !- Handle
  000_Interior Wall,                      !- Name
  ,                                       !- Surface Rendering Name
  {7a881cd5-6dd5-4f95-a359-5766402b92f9}, !- Layer 1
  {64e3c71a-e053-4576-acda-831623c1f36b}, !- Layer 2
  {7a881cd5-6dd5-4f95-a359-5766402b92f9}; !- Layer 3

OS:Construction,
  {2cf4aa90-8b12-488d-9177-e0029ecbcd23}, !- Handle
  000_Interior Ceiling,                   !- Name
  ,                                       !- Surface Rendering Name
  {e8c9ac12-20ac-4237-ac82-f6e9c94d50fe}, !- Layer 1
  {2ca1c9d2-2e08-4ad3-9878-a1e90aa2ccce}, !- Layer 2
  {9ed652ad-99a8-413a-9bc2-e394500ee112}; !- Layer 3

OS:Construction,
  {bb3cac36-88bb-416c-ab6a-6e6e9a892227}, !- Handle
  ASHRAE_189.1-2009_ExtWindow_ClimateZone 4-5, !- Name
  ,                                       !- Surface Rendering Name
  {c5191e6a-9085-4d41-8268-7f92a1296660}; !- Layer 1

OS:Construction,
  {03a9cb61-97d1-4a6c-8841-46b9885e4b29}, !- Handle
  000_Exterior Door,                      !- Name
  ,                                       !- Surface Rendering Name
  {27a784a8-4576-4722-b986-7583edfc8414}, !- Layer 1
  {60163fb5-bfad-4425-b018-07643b25460d}; !- Layer 2

OS:Construction,
  {3033ec24-fe64-482a-b3d6-17864b89dd79}, !- Handle
  000_Exterior Window,                    !- Name
  ,                                       !- Surface Rendering Name
  {4a2466a1-f644-4343-9d05-bc48dd0cab55}, !- Layer 1
  {cfda0b54-09f6-49ba-94ef-94b1c5e5615a}, !- Layer 2
  {4a2466a1-f644-4343-9d05-bc48dd0cab55}; !- Layer 3

OS:Construction,
  {0bd130d1-300e-4a40-a328-0dbbd0514f5c}, !- Handle
  000_Interior Window,                    !- Name
  ,                                       !- Surface Rendering Name
  {4a2466a1-f644-4343-9d05-bc48dd0cab55}; !- Layer 1

OS:Construction,
  {6373845e-9869-4fc9-a793-626fa6aa121d}, !- Handle
  000_Interior Door,                      !- Name
  ,                                       !- Surface Rendering Name
  {c6af2955-7c35-49af-a19e-84e7fc9504b7}; !- Layer 1

OS:Material,
  {c6af2955-7c35-49af-a19e-84e7fc9504b7}, !- Handle
  000_G05 25mm wood,                      !- Name
  MediumSmooth,                           !- Roughness
  0.025399999999999999,                   !- Thickness {m}
  0.14999999999999999,                    !- Conductivity {W/m-K}
  608,                                    !- Density {kg/m3}
  1630;                                   !- Specific Heat {J/kg-K}

OS:Material,
  {dfa17b84-1a2f-4d37-81bf-2f9417cb9852}, !- Handle
  MAT-CC05 4 HW CONCRETE,                 !- Name
  Rough,                                  !- Roughness
  0.1016,                                 !- Thickness {m}
  1.3109999999999999,                     !- Conductivity {W/m-K}
  2240,                                   !- Density {kg/m3}
  836.8,                                  !- Specific Heat {J/kg-K}
  0.90000000000000002,                    !- Thermal Absorptance
  0.69999999999999996,                    !- Solar Absorptance
  0.69999999999999996;                    !- Visible Absorptance

OS:Material:NoMass,
  {3414cc4b-e883-45a6-8209-6e2f45366d5e}, !- Handle
  CP02 CARPET PAD,                        !- Name
  VeryRough,                              !- Roughness
  0.2165,                                 !- Thermal Resistance
  0.90000000000000002,                    !- Thermal Absorptance
  0.69999999999999996,                    !- Solar Absorptance
  0.80000000000000004;                    !- Visible Absorptance

OS:Material:NoMass,
  {bf018dce-ad33-455a-97e5-fbc27cfbc909}, !- Handle
  MAT-SHEATH,                             !- Name
  Rough,                                  !- Roughness
  0.36259999999999998,                    !- Thermal Resistance
  0.90000000000000002,                    !- Thermal Absorptance
  0.69999999999999996,                    !- Solar Absorptance
  0.69999999999999996;                    !- Visible Absorptance

OS:Material,
  {1694c0bb-cbd2-4dfe-8998-fbe31583ee7b}, !- Handle
  Wall Insulation [39],                   !- Name
  MediumRough,                            !- Roughness
  0.11840000000000001,                    !- Thickness {m}
  0.044999999999999998,                   !- Conductivity {W/m-K}
  265,                                    !- Density {kg/m3}
  836.8,                                  !- Specific Heat {J/kg-K}
  0.90000000000000002,                    !- Thermal Absorptance
  0.69999999999999996,                    !- Solar Absorptance
  0.69999999999999996;                    !- Visible Absorptance

OS:Material,
  {804e1c50-1413-4281-a407-7cfca91bb6e2}, !- Handle
  1/2IN Gypsum,                           !- Name
  Smooth,                                 !- Roughness
  0.012699999999999999,                   !- Thickness {m}
  0.16,                                   !- Conductivity {W/m-K}
  784.89999999999998,                     !- Density {kg/m3}
  830,                                    !- Specific Heat {J/kg-K}
  0.90000000000000002,                    !- Thermal Absorptance
  0.92000000000000004,                    !- Solar Absorptance
  0.92000000000000004;                    !- Visible Absorptance

OS:Material,
  {660e2f7a-9191-4634-b45e-cefd2059cde8}, !- Handle
  Roof Membrane,                          !- Name
  VeryRough,                              !- Roughness
  0.0094999999999999998,                  !- Thickness {m}
  0.16,                                   !- Conductivity {W/m-K}
  1121.29,                                !- Density {kg/m3}
  1460,                                   !- Specific Heat {J/kg-K}
  0.90000000000000002,                    !- Thermal Absorptance
  0.69999999999999996,                    !- Solar Absorptance
  0.69999999999999996;                    !- Visible Absorptance

OS:Material,
  {32f33119-3a03-44ce-b34e-5dbe3e50f17b}, !- Handle
  Roof Insulation [21],                   !- Name
  MediumRough,                            !- Roughness
  0.21049999999999999,                    !- Thickness {m}
  0.049000000000000002,                   !- Conductivity {W/m-K}
  265,                                    !- Density {kg/m3}
  836.8,                                  !- Specific Heat {J/kg-K}
  0.90000000000000002,                    !- Thermal Absorptance
  0.69999999999999996,                    !- Solar Absorptance
  0.69999999999999996;                    !- Visible Absorptance

OS:Material,
  {9d6b1825-7e49-48e6-b868-d7c01caf5362}, !- Handle
  Metal Decking,                          !- Name
  MediumSmooth,                           !- Roughness
  0.0015,                                 !- Thickness {m}
  45.006,                                 !- Conductivity {W/m-K}
  7680,                                   !- Density {kg/m3}
  418.4,                                  !- Specific Heat {J/kg-K}
  0.90000000000000002,                    !- Thermal Absorptance
  0.69999999999999996,                    !- Solar Absorptance
  0.29999999999999999;                    !- Visible Absorptance

OS:Material,
  {9ed652ad-99a8-413a-9bc2-e394500ee112}, !- Handle
  000_F16 Acoustic tile,                  !- Name
  MediumSmooth,                           !- Roughness