
OS:Version,
  {1a9f4dce-b793-4399-a7c8-8558aef2ce44}, !- Handle
  2.0.4;                                  !- Version Identifier

OS:SimulationControl,
  {03cd55d7-12cb-4653-80e0-5dfeca8ea511}, !- Handle
  Yes,                                    !- Do Zone Sizing Calculation
  Yes,                                    !- Do System Sizing Calculation
  ,                                       !- Do Plant Sizing Calculation
  No,                                     !- Run Simulation for Sizing Periods
  Yes;                                    !- Run Simulation for Weather File Run Periods

OS:Timestep,
  {5166e899-3c3c-41aa-b9bb-29b0e19fb2c1}, !- Handle
  6;                                      !- Number of Timesteps per Hour

OS:RunPeriod,
  {d8a77619-2d75-46a0-a590-8a2f7e775a3a}, !- Handle
  Run Period 1,                           !- Name
  1,                                      !- Begin Month
  1,                                      !- Begin Day of Month
  12,                                     !- End Month
  31,                                     !- End Day of Month
  No,                                     !- Use Weather File Holidays and Special Days
  No,                                     !- Use Weather File Daylight Saving Period
  No,                                     !- Apply Weekend Holiday Rule
  Yes,                                    !- Use Weather File Rain Indicators
  Yes,                                    !- Use Weather File Snow Indicators
  1;                                      !- Number of Times Runperiod to be Repeated

OS:SurfaceConvectionAlgorithm:Inside,
  {0b52ad06-aedc-4e8b-8c71-166bb039a14e}, !- Handle
  TARP;                                   !- Algorithm

OS:SurfaceConvectionAlgorithm:Outside,
  {8c84c22a-d423-4278-b43d-04c654853273}, !- Handle
  DOE-2;                                  !- Algorithm

OS:HeatBalanceAlgorithm,
  {78eb6cbf-e54f-40be-a204-e7553e110f13}, !- Handle
  ConductionTransferFunction,             !- Algorithm
  200;                                    !- Surface Temperature Upper Limit {C}

OS:ZoneAirHeatBalanceAlgorithm,
  {076f413b-86a9-4b11-bdb7-6befc44a6fb7}, !- Handle
  ThirdOrderBackwardDifference;           !- Algorithm

OS:ConvergenceLimits,
  {1a7de567-4d66-4839-8dfd-fc295dec3166}, !- Handle
  1;                                      !- Minimum System Timestep {minutes}

OS:ShadowCalculation,
  {8a40f0ad-c71d-447b-aaaa-c035bc4072a3}, !- Handle
  20,                                     !- Calculation Frequency
  15000;                                  !- Maximum Figures in Shadow Overlap Calculations

OS:Site,
  {ca0eb5e0-b584-4a14-b022-53b12f16cb1a}, !- Handle
  Site 1,                                 !- Name
  41.77,                                  !- Latitude {deg}
  -87.75,                                 !- Longitude {deg}
  -6,                                     !- Time Zone {hr}
  190,                                    !- Elevation {m}
  ;                                       !- Terrain

OS:Site:GroundTemperature:BuildingSurface,
  {b3771e69-357d-4f87-be09-ae712a788ca5}, !- Handle
  19.527,                                 !- January Ground Temperature {C}
  19.502,                                 !- February Ground Temperature {C}
  19.536,                                 !- March Ground Temperature {C}
  19.598,                                 !- April Ground Temperature {C}
  20.002,                                 !- May Ground Temperature {C}
  21.64,                                  !- June Ground Temperature {C}
  22.225,                                 !- July Ground Temperature {C}
  22.375,                                 !- August Ground Temperature {C}
  21.449,                                 !- September Ground Temperature {C}
  20.121,                                 !- October Ground Temperature {C}
  19.802,                                 !- November Ground Temperature {C}
  19.633;                                 !- December Ground Temperature {C}

OS:Site:GroundTemperature:Deep,
  {56b5575c-4da5-4d39-8415-4a04287c8442}, !- Handle
  19.527,                                 !- January Deep Ground Temperature {C}
  19.502,                                 !- February Deep Ground Temperature {C}
  19.536,                                 !- March Deep Ground Temperature {C}
  19.598,                                 !- April Deep Ground Temperature {C}
  20.002,                                 !- May Deep Ground Temperature {C}
  21.64,                                  !- June Deep Ground Temperature {C}
  22.225,                                 !- July Deep Ground Temperature {C}
  22.375,                                 !- August Deep Ground Temperature {C}
  21.449,                                 !- September Deep Ground Temperature {C}
  20.121,                                 !- October Deep Ground Temperature {C}
  19.802,                                 !- November Deep Ground Temperature {C}
  19.633;                                 !- December Deep Ground Temperature {C}

OS:Site:WaterMainsTemperature,
  {da052bac-62be-40c2-843d-692c94a1871e}, !- Handle
  Correlation,                            !- Calculation Method
  ,                                       !- Temperature Schedule Name
  9.69,                                   !- Annual Average Outdoor Air Temperature {C}
  28.1;                                   !- Maximum Difference In Monthly Average Outdoor Air Temperatures {deltaC}

OS:SizingPeriod:DesignDay,
  {594d7580-3217-460e-82f3-22869f90cd33}, !- Handle
  Sizing Period Design Day 1,             !- Name
  -20.6,                                  !- Maximum Dry-Bulb Temperature {C}
  0,                                      !- Daily Dry-Bulb Temperature Range {deltaC}
  -20.6,                                  !- Humidity Indicating Conditions at Maximum Dry-Bulb
  99063,                                  !- Barometric Pressure {Pa}
  4.9,                                    !- Wind Speed {m/s}
  270,                                    !- Wind Direction {deg}
  0,                                      !- Sky Clearness
  0,                                      !- Rain Indicator
  0,                                      !- Snow Indicator
  21,                                     !- Day of Month
  1,                                      !- Month
  WinterDesignDay,                        !- Day Type
  0,                                      !- Daylight Saving Time Indicator
  WetBulb,                                !- Humidity Indicating Type
  ,                                       !- Humidity Indicating Day Schedule Name
  DefaultMultipliers,                     !- Dry-Bulb Temperature Range Modifier Type
  ,                                       !- Dry-Bulb Temperature Range Modifier Schedule Name
  ASHRAEClearSky;                         !- Solar Model Indicator

OS:SizingPeriod:DesignDay,
  {fd26231e-a121-4509-948c-98b2a9f65487}, !- Handle
  Sizing Period Design Day 2,             !- Name
  33.2,                                   !- Maximum Dry-Bulb Temperature {C}
  10.7,                                   !- Daily Dry-Bulb Temperature Range {deltaC}
  23.8,                                   !- Humidity Indicating Conditions at Maximum Dry-Bulb
  99063,                                  !- Barometric Pressure {Pa}
  5.3,                                    !- Wind Speed {m/s}
  230,                                    !- Wind Direction {deg}
  1,                                      !- Sky Clearness
  0,                                      !- Rain Indicator
  0,                                      !- Snow Indicator
  21,                                     !- Day of Month
  7,                                      !- Month
  SummerDesignDay,                        !- Day Type
  0,                                      !- Daylight Saving Time Indicator
  WetBulb,                                !- Humidity Indicating Type
  ,                                       !- Humidity Indicating Day Schedule Name
  DefaultMultipliers,                     !- Dry-Bulb Temperature Range Modifier Type
  ,                                       !- Dry-Bulb Temperature Range Modifier Schedule Name
  ASHRAEClearSky;                         !- Solar Model Indicator

OS:ScheduleTypeLimits,
  {54be8105-e9c2-4c70-bd5a-442951404d01}, !- Handle
  Temperature,                            !- Name
  -60,                                    !- Lower Limit Value
  200,                                    !- Upper Limit Value
  CONTINUOUS,                             !- Numeric Type
  Temperature;                            !- Unit Type

OS:DefaultScheduleSet,
  {209836df-df7d-4b27-be52-03863326239a}, !- Handle
  Default Schedules,                      !- Name
  ,                                       !- Hours of Operation Schedule Name
  {f6dd0101-5371-48a4-a398-5c88ae5abf8c}, !- Number of People Schedule Name
  {4706c328-cc4f-4a9b-9141-f05a177c21a3}, !- People Activity Level Schedule Name
  {0003d1aa-3117-4326-a132-57605bf96966}, !- Lighting Schedule Name
  {ce937921-962c-4e47-9e80-a0689c0a3c79}, !- Electric Equipment Schedule Name
  {1507ff64-0a3a-47c3-b84d-9c8616a15454}, !- Gas Equipment Schedule Name
  {d37d3a23-ffe3-4169-9a22-669cababb0b3}, !- Hot Water Equipment Schedule Name
  {ef0ad506-dfcd-4baf-9584-dcf2d6939049}, !- Infiltration Schedule Name
  ,                                       !- Steam Equipment Schedule Name
  ;                                       !- Other Equipment Schedule Name

OS:Schedule:Ruleset,
  {f6dd0101-5371-48a4-a398-5c88ae5abf8c}, !- Handle
  Medium Office Number of People Schedule, !- Name
  {2b7bbe4d-3ed5-48a0-9f18-9e3ac9071776}, !- Schedule Type Limits Name
  {e5eac3f7-3633-4587-ae98-92b4b79bffcc}, !- Default Day Schedule Name
  {77f73939-6118-4be2-895f-42e5d1506cf8}; !- Summer Design Day Schedule Name

OS:Schedule:Day,
  {e5eac3f7-3633-4587-ae98-92b4b79bffcc}, !- Handle
  Medium Office Number of People All Other Days Schedule, !- Name
  {2b7bbe4d-3ed5-48a0-9f18-9e3ac9071776}, !- Schedule Type Limits Name
  ,                                       !- Interpolate to Timestep
  24,                                     !- Hour 1
  0,                                      !- Minute 1
  0;                                      !- Value Until Time 1

OS:Schedule:Day,
  {56f4f136-204f-4dcc-8f44-c4b9d212e0d6}, !- Handle
  Medium Office Number of People Summer Design Day Schedule, !- Name
  ,                                       !- Schedule Type Limits Name
  ,                                       !- Interpolate to Timestep
  6,                                      !- Hour 1
  0,                                      !- Minute 1
  0,                                      !- Value Until Time 1
  22,                                     !- Hour 2
  0,                                      !- Minute 2
  1,                                      !- Value Until Time 2
  24,                                     !- Hour 3
  0,                                      !- Minute 3
  0.05;                                   !- Value Until Time 3

OS:Schedule:Day,
  {77f73939-6118-4be2-895f-42e5d1506cf8}, !- Handle
  Medium Office Number of People Summer Design Day Schedule 1, !- Name
  {2b7bbe4d-3ed5-48a0-9f18-9e3ac9071776}, !- Schedule Type Limits Name
  ,                                       !- Interpolate to Timestep
  6,                                      !- Hour 1
  0,                                      !- Minute 1
  0,                                      !- Value Until Time 1
  22,                                     !- Hour 2
  0,                                      !- Minute 2
  1,                                      !- Value Until Time 2
  24,                                     !- Hour 3
  0,                                      !- Minute 3
  0.05;                                   !- Value Until Time 3

OS:Schedule:Rule,
  {c09fb223-3b0e-4796-9f54-f47f530c51de}, !- Handle
  Medium Office Number of People Schedule Weekdays Rule, !- Name
  {f6dd0101-5371-48a4-a398-5c88ae5abf8c}, !- Schedule Ruleset Name
  1,                                      !- Rule Order
  {3e108422-742b-4de0-866e-6a785a62eb6c}, !- Day Schedule Name
  ,                                       !- Apply Sunday
  Yes,                                    !- Apply Monday
  Yes,                                    !- Apply Tuesday
  Yes,                                    !- Apply Wednesday
  Yes,                                    !- Apply Thursday
  Yes;                                    !- Apply Friday

OS:Schedule:Day,
  {3e108422-742b-4de0-866e-6a785a62eb6c}, !- Handle
  Medium Office Number of People Weekdays Schedule, !- Name
  {2b7bbe4d-3ed5-48a0-9f18-9e3ac9071776}, !- Schedule Type Limits Name
  ,                                       !- Interpolate to Timestep
  6,                                      !- Hour 1
  0,                                      !- Minute 1
  0,                                      !- Value Until Time 1
  7,                                      !- Hour 2
  0,                                      !- Minute 2
  0.1,                                    !- Value Until Time 2
  8,                                      !- Hour 3
  0,                                      !- Minute 3
  0.2,                                    !- Value Until Time 3
  12,                                     !- Hour 4
  0,                                      !- Minute 4
  0.95,                                   !- Value Until Time 4
  13,                                     !- Hour 5
  0,                                      !- Minute 5
  0.5,                                    !- Value Until Time 5
  17,                                     !- Hour 6
  0,                                      !- Minute 6
  0.95,                                   !- Value Until Time 6
  18,                                     !- Hour 7
  0,                                      !- Minute 7
  0.7,                                    !- Value Until Time 7
  20,                                     !- Hour 8
  0,                                      !- Minute 8
  0.4,                                    !- Value Until Time 8
  22,                                     !- Hour 9
  0,                                      !- Minute 9
  0.1,                                    !- Value Until Time 9
  24,                                     !- Hour 10
  0,                                      !- Minute 10
  0.05;                                   !- Value Until Time 10

OS:Schedule:Rule,
  {f519f024-2de8-4acb-9d8b-aa24cabc1b49}, !- Handle
  Medium Office Number of People Schedule Saturday Rule, !- Name
  {f6dd0101-5371-48a4-a398-5c88ae5abf8c}, !- Schedule Ruleset Name
  0,                                      !- Rule Order
  {f2492685-e65b-4cf5-bd00-843664f5f988}, !- Day Schedule Name
  ,                                       !- Apply Sunday
  ,                                       !- Apply Monday
  ,                                       !- Apply Tuesday
  ,                                       !- Apply Wednesday
  ,                                       !- Apply Thursday
  ,                                       !- Apply Friday
  Yes;                                    !- Apply Saturday

OS:Schedule:Day,
  {f2492685-e65b-4cf5-bd00-843664f5f988}, !- Handle
  Medium Office Number of People Saturday Schedule, !- Name
  {2b7bbe4d-3ed5-48a0-9f18-9e3ac9071776}, !- Schedule Type Limits Name
  ,                                       !- Interpolate to Timestep
  6,                                      !- Hour 1
  0,                                      !- Minute 1
  0,                                      !- Value Until Time 1
  8,                                      !- Hour 2
  0,                                      !- Minute 2
  0.1,                                    !- Value Until Time 2
  14,                                     !- Hour 3
  0,                                      !- Minute 3
  0.5,                                    !- Value Until Time 3
  17,                                     !- Hour 4
  0,                                      !- Minute 4
  0.1,                                    !- Value Until Time 4
  24,                                     !- Hour 5
  0,                                      !- Minute 5
  0;                                      !- Value Until Time 5

OS:ScheduleTypeLimits,
  {2b7bbe4d-3ed5-48a0-9f18-9e3ac9071776}, !- Handle
  Fractional,                             !- Name
  0,                                      !- Lower Limit Value
  1,                                      !- Upper Limit Value
  Continuous;                             !- Numeric Type

OS:Schedule:Ruleset,
  {4706c328-cc4f-4a9b-9141-f05a177c21a3}, !- Handle
  Medium Office People Activity Level Schedule, !- Name
  {45e6838a-869a-4c07-9854-5b3808e42ad3}, !- Schedule Type Limits Name
  {ba48cf81-d808-49d3-a737-86c9e55185b3}; !- Default Day Schedule Name

OS:Schedule:Day,
  {ba48cf81-d808-49d3-a737-86c9e55185b3}, !- Handle
  Medium Office People Activity Level All Days Schedule, !- Name
  {45e6838a-869a-4c07-9854-5b3808e42ad3}, !- Schedule Type Limits Name
  ,                                       !- Interpolate to Timestep
  24,                                     !- Hour 1
  0,                                      !- Minute 1
  120;                                    !- Value Until Time 1

OS:ScheduleTypeLimits,
  {45e6838a-869a-4c07-9854-5b3808e42ad3}, !- Handle
  ActivityLevel,                          !- Name
  0,                                      !- Lower Limit Value
  ,                                       !- Upper Limit Value
  Continuous,                             !- Numeric Type
  ActivityLevel;                          !- Unit Type

OS:Schedule:Ruleset,
  {0003d1aa-3117-4326-a132-57605bf96966}, !- Handle
  Medium Office Lighting Schedule,        !- Name
  {2b7bbe4d-3ed5-48a0-9f18-9e3ac9071776}, !- Schedule Type Limits Name
  {ed61f2f2-c95d-4844-bfd8-d59d628a3548}, !- Default Day Schedule Name
  {f53c772d-4e0e-48b2-b533-a8e699559445}, !- Summer Design Day Schedule Name
  {2c014aa6-ae78-49a4-a7de-d8f7b34005d4}; !- Winter Design Day Schedule Name

OS:Schedule:Day,
  {ed61f2f2-c95d-4844-bfd8-d59d628a3548}, !- Handle
  Medium Office Lighting All Other Days Schedule, !- Name
  {2b7bbe4d-3ed5-48a0-9f18-9e3ac9071776}, !- Schedule Type Limits Name
  ,                                       !- Interpolate to Timestep
  24,                                     !- Hour 1
  0,                                      !- Minute 1
  0.05;                                   !- Value Until Time 1

OS:Schedule:Day,
  {3a00ed00-aac4-4eba-a9d5-7d170c95790b}, !- Handle
  Medium Office Lighting Summer Design Day Schedule, !- Name
  ,                                       !- Schedule Type Limits Name
  ,                                       !- Interpolate to Timestep
  6,                                      !- Hour 1
  0,                                      !- Minute 1
  1,                                      !- Value Until Time 1
  24,                                     !- Hour 2
  0,                                      !- Minute 2
  0;                                      !- Value Until Time 2

OS:Schedule:Day,
  {f53c772d-4e0e-48b2-b533-a8e699559445}, !- Handle
  Medium Office Lighting Summer Design Day Schedule 1, !- Name
  {2b7bbe4d-3ed5-48a0-9f18-9e3ac9071776}, !- Schedule Type Limits Name
  ,                                       !- Interpolate to Timestep
  6,                                      !- Hour 1
  0,                                      !- Minute 1
  1,                                      !- Value Until Time 1
  24,                                     !- Hour 2
  0,                                      !- Minute 2
  0;                                      !- Value Until Time 2

OS:Schedule:Day,
  {5af79580-26b3-4166-b2ca-4f1a95edc9e8}, !- Handle
  Medium Office Lighting Winter Design Day Schedule, !- Name
  ,                                       !- Schedule Type Limits Name
  ,                                       !- Interpolate to Timestep
  24,                                     !- Hour 1
  0,                                      !- Minute 1
  0;                                      !- Value Until Time 1

OS:Schedule:Day,
  {2c014aa6-ae78-49a4-a7de-d8f7b34005d4}, !- Handle
  Medium Office Lighting Winter Design Day Schedule 1, !- Name
  {2b7bbe4d-3ed5-48a0-9f18-9e3ac9071776}, !- Schedule Type Limits Name
  ,                                       !- Interpolate to Timestep
  24,                                     !- Hour 1
  0,                                      !- Minute 1
  0;                                      !- Value Until Time 1

OS:Schedule:Rule,
  {557e3e46-86f5-4df1-b7f1-89abdbb1b7ff}, !- Handle
  Medium Office Lighting Schedule Weekdays Rule, !- Name
  {0003d1aa-3117-4326-a132-57605bf96966}, !- Schedule Ruleset Name
  1,                                      !- Rule Order
  {ec38f76b-7b10-4a92-a258-3cb31f14e2b6}, !- Day Schedule Name
  ,                                       !- Apply Sunday
  Yes,                                    !- Apply Monday
  Yes,                                    !- Apply Tuesday
  Yes,                                    !- Apply Wednesday
  Yes,                                    !- Apply Thursday
  Yes;                                    !- Apply Friday

OS:Schedule:Day,
  {ec38f76b-7b10-4a92-a258-3cb31f14e2b6}, !- Handle
  Medium Office Lighting Weekdays Schedule, !- Name
  {2b7bbe4d-3ed5-48a0-9f18-9e3ac9071776}, !- Schedule Type Limits Name
  ,                                       !- Interpolate to Timestep
  5,                                      !- Hour 1
  0,                                      !- Minute 1
  0.05,                                   !- Value Until Time 1
  7,                                      !- Hour 2
  0,                                      !- Minute 2
  0.1,                                    !- Value Until Time 2
  8,                                      !- Hour 3
  0,                                      !- Minute 3
  0.3,                                    !- Value Until Time 3
  17,                                     !- Hour 4
  0,                                      !- Minute 4
  0.9,                                    !- Value Until Time 4
  18,                                     !- Hour 5
  0,                                      !- Minute 5
  0.7,                                    !- Value Until Time 5
  20,                                     !- Hour 6
  0,                                      !- Minute 6
  0.5,                                    !- Value Until Time 6
  22,                                     !- Hour 7
  0,                                      !- Minute 7
  0.3,                                    !- Value Until Time 7
  23,                                     !- Hour 8
  0,                                      !- Minute 8
  0.1,                                    !- Value Until Time 8
  24,                                     !- Hour 9
  0,                                      !- Minute 9
  0.05;                                   !- Value Until Time 9

OS:Schedule:Rule,
  {ab2dd4b1-7cb6-4aba-9705-f0b1052a3eec}, !- Handle
  Medium Office Lighting Schedule Saturday Rule, !- Name
  {0003d1aa-3117-4326-a132-57605bf96966}, !- Schedule Ruleset Name
  0,                                      !- Rule Order
  {b48325e8-155d-4778-b12f-b02baaa21780}, !- Day Schedule Name
  ,                                       !- Apply Sunday
  ,                                       !- Apply Monday
  ,                                       !- Apply Tuesday
  ,                                       !- Apply Wednesday
  ,                                       !- Apply Thursday
  ,                                       !- Apply Friday
  Yes;                                    !- Apply Saturday

OS:Schedule:Day,
  {b48325e8-155d-4778-b12f-b02baaa21780}, !- Handle
  Medium Office Lighting Saturday Schedule, !- Name
  {2b7bbe4d-3ed5-48a0-9f18-9e3ac9071776}, !- Schedule Type Limits Name
  ,                                       !- Interpolate to Timestep
  6,                                      !- Hour 1
  0,                                      !- Minute 1
  0.05,                                   !- Value Until Time 1
  8,                                      !- Hour 2
  0,                                      !- Minute 2
  0.1,                                    !- Value Until Time 2
  14,                                     !- Hour 3
  0,                                      !- Minute 3
  0.5,                                    !- Value Until Time 3
  17,                                     !- Hour 4
  0,                                      !- Minute 4
  0.15,                                   !- Value Until Time 4
  24,                                     !- Hour 5
  0,                                      !- Minute 5
  0.05;                                   !- Value Until Time 5

OS:Schedule:Ruleset,
  {ce937921-962c-4e47-9e80-a0689c0a3c79}, !- Handle
  Medium Office Electric Equipment Schedule, !- Name
  {2b7bbe4d-3ed5-48a0-9f18-9e3ac9071776}, !- Schedule Type Limits Name
  {4774555c-a93f-440f-92b1-2d6995d38782}, !- Default Day Schedule Name
  {7614daf5-0648-4372-9724-4db88d654eeb}, !- Summer Design Day Schedule Name
  {777d5976-51ac-46b0-b97d-32d071ccf857}; !- Winter Design Day Schedule Name

OS:Schedule:Day,
  {4774555c-a93f-440f-92b1-2d6995d38782}, !- Handle
  Medium Office Electric Equipment All Other Days Schedule, !- Name
  {2b7bbe4d-3ed5-48a0-9f18-9e3ac9071776}, !- Schedule Type Limits Name
  ,                                       !- Interpolate to Timestep
  24,                                     !- Hour 1
  0,                                      !- Minute 1
  0.3;                                    !- Value Until Time 1

OS:Schedule:Day,
  {138a311b-6e61-42b7-92fc-02913bb41aae}, !- Handle
  Medium Office Electric Equipment Summer Design Day Schedule, !- Name
  ,                                       !- Schedule Type Limits Name
  ,                                       !- Interpolate to Timestep
  6,                                      !- Hour 1
  0,                                      !- Minute 1
  1,                                      !- Value Until Time 1
  24,                                     !- Hour 2
  0,                                      !- Minute 2
  0;                                      !- Value Until Time 2

OS:Schedule:Day,
  {7614daf5-0648-4372-9724-4db88d654eeb}, !- Handle
  Medium Office Electric Equipment Summer Design Day Schedule 1, !- Name
  {2b7bbe4d-3ed5-48a0-9f18-9e3ac9071776}, !- Schedule Type Limits Name
  ,                                       !- Interpolate to Timestep
  6,                                      !- Hour 1
  0,                                      !- Minute 1
  1,                                      !- Value Until Time 1
  24,                                     !- Hour 2
  0,                                      !- Minute 2
  0;                                      !- Value Until Time 2

OS:Schedule:Day,
  {997cb8f0-e210-47d5-8da1-3dc5d3048c2a}, !- Handle
  Medium Office Electric Equipment Winter Design Day Schedule, !- Name
  ,                                       !- Schedule Type Limits Name
  ,                                       !- Interpolate to Timestep
  24,                                     !- Hour 1
  0,                                      !- Minute 1
  0;                                      !- Value Until Time 1

OS:Schedule:Day,
  {777d5976-51ac-46b0-b97d-32d071ccf857}, !- Handle
  Medium Office Electric Equipment Winter Design Day Schedule 1, !- Name
  {2b7bbe4d-3ed5-48a0-9f18-9e3ac9071776}, !- Schedule Type Limits Name
  ,                                       !- Interpolate to Timestep
  24,                                     !- Hour 1
  0,                                      !- Minute 1
  0;                                      !- Value Until Time 1

OS:Schedule:Rule,
  {f4093ff7-ce46-4f11-b78f-92a57ac9919e}, !- Handle
  Medium Office Electric Equipment Schedule Weekdays Rule, !- Name
  {ce937921-962c-4e47-9e80-a0689c0a3c79}, !- Schedule Ruleset Name
  1,                                      !- Rule Order
  {1ffbb7e6-25be-4d4b-ab05-266d8c864aa7}, !- Day Schedule Name
  ,                                       !- Apply Sunday
  Yes,                                    !- Apply Monday
  Yes,                                    !- Apply Tuesday
  Yes,                                    !- Apply Wednesday
  Yes,                                    !- Apply Thursday
  Yes;                                    !- Apply Friday

OS:Schedule:Day,
  {1ffbb7e6-25be-4d4b-ab05-266d8c864aa7}, !- Handle
  Medium Office Electric Equipment Weekdays Schedule, !- Name
  {2b7bbe4d-3ed5-48a0-9f18-9e3ac9071776}, !- Schedule Type Limits Name
  ,                                       !- Interpolate to Timestep
  8,                                      !- Hour 1
  0,                                      !- Minute 1
  0.4,                                    !- Value Until Time 1
  12,                                     !- Hour 2
  0,                                      !- Minute 2
  0.9,                                    !- Value Until Time 2
  13,                                     !- Hour 3
  0,                                      !- Minute 3
  0.8,                                    !- Value Until Time 3
  17,                                     !- Hour 4
  0,                                      !- Minute 4
  0.9,                                    !- Value Until Time 4
  18,                                     !- Hour 5
  0,                                      !- Minute 5
  0.8,                                    !- Value Until Time 5
  20,                                     !- Hour 6