
OS:Version,
  {eda00f1c-57f6-49df-ad08-2ae6b2fa1ae7}, !- Handle
  2.4.1;                                  !- Version Identifier

OS:BuildingStory,
  {c0bab92f-7c3e-49bc-afcf-a8272d75f3c8}, !- Handle
  Story 1,                                !- Name
  0,                                      !- Nominal Z Coordinate {m}
  4,                                      !- Nominal Floor to Floor Height {m}
  ,                                       !- Default Construction Set Name
  ,                                       !- Default Schedule Set Name
  ;                                       !- Group Rendering Name

OS:Space,
  {8be1b0ae-1437-4e80-9fdc-68fa133fa808}, !- Handle
  Story 1 West Perimeter Space,           !- Name
  ,                                       !- Space Type Name
  ,                                       !- Default Construction Set Name
  ,                                       !- Default Schedule Set Name
  -0,                                     !- Direction of Relative North {deg}
  0,                                      !- X Origin {m}
  0,                                      !- Y Origin {m}
  0,                                      !- Z Origin {m}
  {c0bab92f-7c3e-49bc-afcf-a8272d75f3c8}, !- Building Story Name
  {01240f01-28b9-4217-8e1e-91f8200cfb33}; !- Thermal Zone Name

OS:Surface,
  {e4258578-3981-4aec-b0df-9a9f6f6cb74a}, !- Handle
  Surface 1,                              !- Name
  Floor,                                  !- Surface Type
  ,                                       !- Construction Name
  {8be1b0ae-1437-4e80-9fdc-68fa133fa808}, !- Space Name
  Ground,                                 !- Outside Boundary Condition
  ,                                       !- Outside Boundary Condition Object
  NoSun,                                  !- Sun Exposure
  NoWind,                                 !- Wind Exposure
  ,                                       !- View Factor to Ground
  ,                                       !- Number of Vertices
  0, 0, 0,                                !- X,Y,Z Vertex 1 {m}
  0, 50, 0,                               !- X,Y,Z Vertex 2 {m}
  3, 47, 0,                               !- X,Y,Z Vertex 3 {m}
  3, 3, 0;                                !- X,Y,Z Vertex 4 {m}

OS:Surface,
  {7b69cc23-1a5f-4eb5-8768-551e680ce2b2}, !- Handle
  Surface 2,                              !- Name
  Wall,                                   !- Surface Type
  ,                                       !- Construction Name
  {8be1b0ae-1437-4e80-9fdc-68fa133fa808}, !- Space Name
  Outdoors,                               !- Outside Boundary Condition
  ,                                       !- Outside Boundary Condition Object
  SunExposed,                             !- Sun Exposure
  WindExposed,                            !- Wind Exposure
  ,                                       !- View Factor to Ground
  ,                                       !- Number of Vertices
  0, 50, 4,                               !- X,Y,Z Vertex 1 {m}
  0, 50, 0,                               !- X,Y,Z Vertex 2 {m}
  0, 0, 0,                                !- X,Y,Z Vertex 3 {m}
  0, 0, 4;                                !- X,Y,Z Vertex 4 {m}

OS:Surface,
  {6e2adfbd-6c1d-4972-a854-bd44223e4c81}, !- Handle
  Surface 3,                              !- Name
  Wall,                                   !- Surface Type
  ,                                       !- Construction Name
  {8be1b0ae-1437-4e80-9fdc-68fa133fa808}, !- Space Name
  Surface,                                !- Outside Boundary Condition
  {453a6817-7558-4520-ba84-3c1cbf991faa}, !- Outside Boundary Condition Object
  NoSun,                                  !- Sun Exposure
  NoWind,                                 !- Wind Exposure
  ,                                       !- View Factor to Ground
  ,                                       !- Number of Vertices
  3, 47, 4,                               !- X,Y,Z Vertex 1 {m}
  3, 47, 0,                               !- X,Y,Z Vertex 2 {m}
  0, 50, 0,                               !- X,Y,Z Vertex 3 {m}
  0, 50, 4;                               !- X,Y,Z Vertex 4 {m}

OS:Surface,
  {0c97dfde-1358-4848-951f-4af8e2206b59}, !- Handle
  Surface 4,                              !- Name
  Wall,                                   !- Surface Type
  ,                                       !- Construction Name
  {8be1b0ae-1437-4e80-9fdc-68fa133fa808}, !- Space Name
  Surface,                                !- Outside Boundary Condition
  {dce48524-0437-4ede-be43-c1f7378a7132}, !- Outside Boundary Condition Object
  NoSun,                                  !- Sun Exposure
  NoWind,                                 !- Wind Exposure
  ,                                       !- View Factor to Ground
  ,                                       !- Number of Vertices
  3, 3, 4,                                !- X,Y,Z Vertex 1 {m}
  3, 3, 0,                                !- X,Y,Z Vertex 2 {m}
  3, 47, 0,                               !- X,Y,Z Vertex 3 {m}
  3, 47, 4;                               !- X,Y,Z Vertex 4 {m}

OS:Surface,
  {091c8eb6-0859-485f-aab7-7b0163d140d2}, !- Handle
  Surface 5,                              !- Name
  Wall,                                   !- Surface Type
  ,                                       !- Construction Name
  {8be1b0ae-1437-4e80-9fdc-68fa133fa808}, !- Space Name
  Surface,                                !- Outside Boundary Condition
  {7d5cae2a-642f-49bd-823d-6329922c1edc}, !- Outside Boundary Condition Object
  NoSun,                                  !- Sun Exposure
  NoWind,                                 !- Wind Exposure
  ,                                       !- View Factor to Ground
  ,                                       !- Number of Vertices
  0, 0, 4,                                !- X,Y,Z Vertex 1 {m}
  0, 0, 0,                                !- X,Y,Z Vertex 2 {m}
  3, 3, 0,                                !- X,Y,Z Vertex 3 {m}
  3, 3, 4;                                !- X,Y,Z Vertex 4 {m}

OS:Surface,
  {0b2d5861-2877-4856-b64b-8eaa492e8e3f}, !- Handle
  Surface 6,                              !- Name
  RoofCeiling,                            !- Surface Type
  ,                                       !- Construction Name
  {8be1b0ae-1437-4e80-9fdc-68fa133fa808}, !- Space Name
  Surface,                                !- Outside Boundary Condition
  {3c6bd64f-d5df-4c44-9a9e-bc4cae149716}, !- Outside Boundary Condition Object
  NoSun,                                  !- Sun Exposure
  NoWind,                                 !- Wind Exposure
  ,                                       !- View Factor to Ground
  ,                                       !- Number of Vertices
  3, 3, 4,                                !- X,Y,Z Vertex 1 {m}
  3, 47, 4,                               !- X,Y,Z Vertex 2 {m}
  0, 50, 4,                               !- X,Y,Z Vertex 3 {m}
  0, 0, 4;                                !- X,Y,Z Vertex 4 {m}

OS:Space,
  {8bafb886-97b1-41d9-98f9-5dd2364d9541}, !- Handle
  Story 1 North Perimeter Space,          !- Name
  ,                                       !- Space Type Name
  ,                                       !- Default Construction Set Name
  ,                                       !- Default Schedule Set Name
  -0,                                     !- Direction of Relative North {deg}
  3,                                      !- X Origin {m}
  47,                                     !- Y Origin {m}
  0,                                      !- Z Origin {m}
  {c0bab92f-7c3e-49bc-afcf-a8272d75f3c8}, !- Building Story Name
  {b8c21be3-3864-486f-80da-623440384614}; !- Thermal Zone Name

OS:Surface,
  {dc00268d-fa89-4f74-b568-d8d93de1588f}, !- Handle
  Surface 7,                              !- Name
  Floor,                                  !- Surface Type
  ,                                       !- Construction Name
  {8bafb886-97b1-41d9-98f9-5dd2364d9541}, !- Space Name
  Ground,                                 !- Outside Boundary Condition
  ,                                       !- Outside Boundary Condition Object
  NoSun,                                  !- Sun Exposure
  NoWind,                                 !- Wind Exposure
  ,                                       !- View Factor to Ground
  ,                                       !- Number of Vertices
  -3, 3, 0,                               !- X,Y,Z Vertex 1 {m}
  97, 3, 0,                               !- X,Y,Z Vertex 2 {m}
  94, 0, 0,                               !- X,Y,Z Vertex 3 {m}
  0, 0, 0;                                !- X,Y,Z Vertex 4 {m}

OS:Surface,
  {1d99ef4d-6a1b-48fa-a14e-69d3321495ab}, !- Handle
  Surface 8,                              !- Name
  Wall,                                   !- Surface Type
  ,                                       !- Construction Name
  {8bafb886-97b1-41d9-98f9-5dd2364d9541}, !- Space Name
  Outdoors,                               !- Outside Boundary Condition
  ,                                       !- Outside Boundary Condition Object
  SunExposed,                             !- Sun Exposure
  WindExposed,                            !- Wind Exposure
  ,                                       !- View Factor to Ground
  ,                                       !- Number of Vertices
  97, 3, 4,                               !- X,Y,Z Vertex 1 {m}
  97, 3, 0,                               !- X,Y,Z Vertex 2 {m}
  -3, 3, 0,                               !- X,Y,Z Vertex 3 {m}
  -3, 3, 4;                               !- X,Y,Z Vertex 4 {m}

OS:Surface,
  {9ef81207-967a-4b9c-a4a1-000606d4c9ea}, !- Handle
  Surface 9,                              !- Name
  Wall,                                   !- Surface Type
  ,                                       !- Construction Name
  {8bafb886-97b1-41d9-98f9-5dd2364d9541}, !- Space Name
  Surface,                                !- Outside Boundary Condition
  {f7811728-61fd-43bb-ad6b-c1ef5b54e4ff}, !- Outside Boundary Condition Object
  NoSun,                                  !- Sun Exposure
  NoWind,                                 !- Wind Exposure
  ,                                       !- View Factor to Ground
  ,                                       !- Number of Vertices
  94, 0, 4,                               !- X,Y,Z Vertex 1 {m}
  94, 0, 0,                               !- X,Y,Z Vertex 2 {m}
  97, 3, 0,                               !- X,Y,Z Vertex 3 {m}
  97, 3, 4;                               !- X,Y,Z Vertex 4 {m}

OS:Surface,
  {e768020d-8da1-4a3d-995c-d05b6fbd64da}, !- Handle
  Surface 10,                             !- Name
  Wall,                                   !- Surface Type
  ,                                       !- Construction Name
  {8bafb886-97b1-41d9-98f9-5dd2364d9541}, !- Space Name
  Surface,                                !- Outside Boundary Condition
  {444282f0-ddbc-4cff-918c-233f4f4fc964}, !- Outside Boundary Condition Object
  NoSun,                                  !- Sun Exposure
  NoWind,                                 !- Wind Exposure
  ,                                       !- View Factor to Ground
  ,                                       !- Number of Vertices
  0, 0, 4,                                !- X,Y,Z Vertex 1 {m}
  0, 0, 0,                                !- X,Y,Z Vertex 2 {m}
  94, 0, 0,                               !- X,Y,Z Vertex 3 {m}
  94, 0, 4;                               !- X,Y,Z Vertex 4 {m}

OS:Surface,
  {453a6817-7558-4520-ba84-3c1cbf991faa}, !- Handle
  Surface 11,                             !- Name
  Wall,                                   !- Surface Type
  ,                                       !- Construction Name
  {8bafb886-97b1-41d9-98f9-5dd2364d9541}, !- Space Name
  Surface,                                !- Outside Boundary Condition
  {6e2adfbd-6c1d-4972-a854-bd44223e4c81}, !- Outside Boundary Condition Object
  NoSun,                                  !- Sun Exposure
  NoWind,                                 !- Wind Exposure
  ,                                       !- View Factor to Ground
  ,                                       !- Number of Vertices
  -3, 3, 4,                               !- X,Y,Z Vertex 1 {m}
  -3, 3, 0,                               !- X,Y,Z Vertex 2 {m}
  0, 0, 0,                                !- X,Y,Z Vertex 3 {m}
  0, 0, 4;                                !- X,Y,Z Vertex 4 {m}

OS:Surface,
  {f36c726b-5d01-4a4a-b9c0-3cf72aaaeca6}, !- Handle
  Surface 12,                             !- Name
  RoofCeiling,                            !- Surface Type
  ,                                       !- Construction Name
  {8bafb886-97b1-41d9-98f9-5dd2364d9541}, !- Space Name
  Surface,                                !- Outside Boundary Condition
  {fc6efafc-7ea0-458c-b64f-e8e245920272}, !- Outside Boundary Condition Object
  NoSun,                                  !- Sun Exposure
  NoWind,                                 !- Wind Exposure
  ,                                       !- View Factor to Ground
  ,                                       !- Number of Vertices
  0, 0, 4,                                !- X,Y,Z Vertex 1 {m}
  94, 0, 4,                               !- X,Y,Z Vertex 2 {m}
  97, 3, 4,                               !- X,Y,Z Vertex 3 {m}
  -3, 3, 4;                               !- X,Y,Z Vertex 4 {m}

OS:Space,
  {80701a5b-f7ef-4a50-8f9f-82e58a2dd8c7}, !- Handle
  Story 1 East Perimeter Space,           !- Name
  ,                                       !- Space Type Name
  ,                                       !- Default Construction Set Name
  ,                                       !- Default Schedule Set Name
  -0,                                     !- Direction of Relative North {deg}
  97,                                     !- X Origin {m}
  3,                                      !- Y Origin {m}
  0,                                      !- Z Origin {m}
  {c0bab92f-7c3e-49bc-afcf-a8272d75f3c8}, !- Building Story Name
  {2774616c-77f6-4fc8-a691-fc90a0f4244e}; !- Thermal Zone Name

OS:Surface,
  {385a2e74-af2d-4258-909d-286798eb3790}, !- Handle
  Surface 13,                             !- Name
  Floor,                                  !- Surface Type
  ,                                       !- Construction Name
  {80701a5b-f7ef-4a50-8f9f-82e58a2dd8c7}, !- Space Name
  Ground,                                 !- Outside Boundary Condition
  ,                                       !- Outside Boundary Condition Object
  NoSun,                                  !- Sun Exposure
  NoWind,                                 !- Wind Exposure
  ,                                       !- View Factor to Ground
  ,                                       !- Number of Vertices
  3, 47, 0,                               !- X,Y,Z Vertex 1 {m}
  3, -3, 0,                               !- X,Y,Z Vertex 2 {m}
  0, 0, 0,                                !- X,Y,Z Vertex 3 {m}
  0, 44, 0;                               !- X,Y,Z Vertex 4 {m}

OS:Surface,
  {89612595-322d-4625-9758-6755d0cf9713}, !- Handle
  Surface 14,                             !- Name
  Wall,                                   !- Surface Type
  ,                                       !- Construction Name
  {80701a5b-f7ef-4a50-8f9f-82e58a2dd8c7}, !- Space Name
  Outdoors,                               !- Outside Boundary Condition
  ,                                       !- Outside Boundary Condition Object
  SunExposed,                             !- Sun Exposure
  WindExposed,                            !- Wind Exposure
  ,                                       !- View Factor to Ground
  ,                                       !- Number of Vertices
  3, -3, 4,                               !- X,Y,Z Vertex 1 {m}
  3, -3, 0,                               !- X,Y,Z Vertex 2 {m}
  3, 47, 0,                               !- X,Y,Z Vertex 3 {m}
  3, 47, 4;                               !- X,Y,Z Vertex 4 {m}

OS:Surface,
  {7192c684-743b-480b-8ca4-bc723e45bfb0}, !- Handle
  Surface 15,                             !- Name
  Wall,                                   !- Surface Type
  ,                                       !- Construction Name
  {80701a5b-f7ef-4a50-8f9f-82e58a2dd8c7}, !- Space Name
  Surface,                                !- Outside Boundary Condition
  {426b8919-c332-428e-b598-509ad12f65fa}, !- Outside Boundary Condition Object
  NoSun,                                  !- Sun Exposure
  NoWind,                                 !- Wind Exposure
  ,                                       !- View Factor to Ground
  ,                                       !- Number of Vertices
  0, 0, 4,                                !- X,Y,Z Vertex 1 {m}
  0, 0, 0,                                !- X,Y,Z Vertex 2 {m}
  3, -3, 0,                               !- X,Y,Z Vertex 3 {m}
  3, -3, 4;                               !- X,Y,Z Vertex 4 {m}

OS:Surface,
  {1aa063e4-340d-4ab2-ae79-7e0a5e47e9b8}, !- Handle
  Surface 16,                             !- Name
  Wall,                                   !- Surface Type
  ,                                       !- Construction Name
  {80701a5b-f7ef-4a50-8f9f-82e58a2dd8c7}, !- Space Name
  Surface,                                !- Outside Boundary Condition
  {995e27d8-5842-47e2-ad56-77157f605b25}, !- Outside Boundary Condition Object
  NoSun,                                  !- Sun Exposure
  NoWind,                                 !- Wind Exposure
  ,                                       !- View Factor to Ground
  ,                                       !- Number of Vertices
  0, 44, 4,                               !- X,Y,Z Vertex 1 {m}
  0, 44, 0,                               !- X,Y,Z Vertex 2 {m}
  0, 0, 0,                                !- X,Y,Z Vertex 3 {m}
  0, 0, 4;                                !- X,Y,Z Vertex 4 {m}

OS:Surface,
  {f7811728-61fd-43bb-ad6b-c1ef5b54e4ff}, !- Handle
  Surface 17,                             !- Name
  Wall,                                   !- Surface Type
  ,                                       !- Construction Name
  {80701a5b-f7ef-4a50-8f9f-82e58a2dd8c7}, !- Space Name
  Surface,                                !- Outside Boundary Condition
  {9ef81207-967a-4b9c-a4a1-000606d4c9ea}, !- Outside Boundary Condition Object
  NoSun,                                  !- Sun Exposure
  NoWind,                                 !- Wind Exposure
  ,                                       !- View Factor to Ground
  ,                                       !- Number of Vertices
  3, 47, 4,                               !- X,Y,Z Vertex 1 {m}
  3, 47, 0,                               !- X,Y,Z Vertex 2 {m}
  0, 44, 0,                               !- X,Y,Z Vertex 3 {m}
  0, 44, 4;                               !- X,Y,Z Vertex 4 {m}

OS:Surface,
  {4da3a60a-7ab2-4bf3-999e-a4549a8d5dad}, !- Handle
  Surface 18,                             !- Name
  RoofCeiling,                            !- Surface Type
  ,                                       !- Construction Name
  {80701a5b-f7ef-4a50-8f9f-82e58a2dd8c7}, !- Space Name
  Surface,                                !- Outside Boundary Condition
  {a94cbb67-04d6-475e-bbaf-2a4377d8ffa2}, !- Outside Boundary Condition Object
  NoSun,                                  !- Sun Exposure
  NoWind,                                 !- Wind Exposure
  ,                                       !- View Factor to Ground
  ,                                       !- Number of Vertices
  0, 44, 4,                               !- X,Y,Z Vertex 1 {m}
  0, 0, 4,                                !- X,Y,Z Vertex 2 {m}
  3, -3, 4,                               !- X,Y,Z Vertex 3 {m}
  3, 47, 4;                               !- X,Y,Z Vertex 4 {m}

OS:Space,
  {0ff6db33-b08d-401b-9525-99c9eef67580}, !- Handle
  Story 1 South Perimeter Space,          !- Name
  ,                                       !- Space Type Name
  ,                                       !- Default Construction Set Name
  ,                                       !- Default Schedule Set Name
  -0,                                     !- Direction of Relative North {deg}
  0,                                      !- X Origin {m}
  0,                                      !- Y Origin {m}
  0,                                      !- Z Origin {m}
  {c0bab92f-7c3e-49bc-afcf-a8272d75f3c8}, !- Building Story Name
  {8dfdc013-c2cf-41f1-8b45-9f664f038e78}; !- Thermal Zone Name

OS:Surface,
  {79be65f0-e041-4ec6-ba96-58ab269c2d24}, !- Handle
  Surface 19,                             !- Name
  Floor,                                  !- Surface Type
  ,                                       !- Construction Name
  {0ff6db33-b08d-401b-9525-99c9eef67580}, !- Space Name
  Ground,                                 !- Outside Boundary Condition
  ,                                       !- Outside Boundary Condition Object
  NoSun,                                  !- Sun Exposure
  NoWind,                                 !- Wind Exposure
  ,                                       !- View Factor to Ground
  ,                                       !- Number of Vertices
  100, 0, 0,                              !- X,Y,Z Vertex 1 {m}
  0, 0, 0,                                !- X,Y,Z Vertex 2 {m}
  3, 3, 0,                                !- X,Y,Z Vertex 3 {m}
  97, 3, 0;                               !- X,Y,Z Vertex 4 {m}

OS:Surface,
  {849efce1-21b9-441c-b3f3-5e05057c0f3a}, !- Handle
  Surface 20,                             !- Name
  Wall,                                   !- Surface Type
  ,                                       !- Construction Name
  {0ff6db33-b08d-401b-9525-99c9eef67580}, !- Space Name
  Outdoors,                               !- Outside Boundary Condition
  ,                                       !- Outside Boundary Condition Object
  SunExposed,                             !- Sun Exposure
  WindExposed,                            !- Wind Exposure
  ,                                       !- View Factor to Ground
  ,                                       !- Number of Vertices
  0, 0, 4,                                !- X,Y,Z Vertex 1 {m}
  0, 0, 0,                                !- X,Y,Z Vertex 2 {m}
  100, 0, 0,                              !- X,Y,Z Vertex 3 {m}
  100, 0, 4;                              !- X,Y,Z Vertex 4 {m}

OS:Surface,
  {7d5cae2a-642f-49bd-823d-6329922c1edc}, !- Handle
  Surface 21,                             !- Name
  Wall,                                   !- Surface Type
  ,                                       !- Construction Name
  {0ff6db33-b08d-401b-9525-99c9eef67580}, !- Space Name
  Surface,                                !- Outside Boundary Condition
  {091c8eb6-0859-485f-aab7-7b0163d140d2}, !- Outside Boundary Condition Object
  NoSun,                                  !- Sun Exposure
  NoWind,                                 !- Wind Exposure
  ,                                       !- View Factor to Ground
  ,                                       !- Number of Vertices
  3, 3, 4,                                !- X,Y,Z Vertex 1 {m}
  3, 3, 0,                                !- X,Y,Z Vertex 2 {m}
  0, 0, 0,                                !- X,Y,Z Vertex 3 {m}
  0, 0, 4;                                !- X,Y,Z Vertex 4 {m}

OS:Surface,
  {fa887793-aea3-491b-aeb3-3eb138f4f8bf}, !- Handle
  Surface 22,                             !- Name
  Wall,                                   !- Surface Type
  ,                                       !- Construction Name
  {0ff6db33-b08d-401b-9525-99c9eef67580}, !- Space Name
  Surface,                                !- Outside Boundary Condition
  {ad839271-645f-4fdb-9354-266b46da7b6d}, !- Outside Boundary Condition Object
  NoSun,                                  !- Sun Exposure
  NoWind,                                 !- Wind Exposure
  ,                                       !- View Factor to Ground
  ,                                       !- Number of Vertices
  97, 3, 4,                               !- X,Y,Z Vertex 1 {m}
  97, 3, 0,                               !- X,Y,Z Vertex 2 {m}
  3, 3, 0,                                !- X,Y,Z Vertex 3 {m}
  3, 3, 4;                                !- X,Y,Z Vertex 4 {m}

OS:Surface,
  {426b8919-c332-428e-b598-509ad12f65fa}, !- Handle
  Surface 23,                             !- Name
  Wall,                                   !- Surface Type
  ,                                       !- Construction Name
  {0ff6db33-b08d-401b-9525-99c9eef67580}, !- Space Name
  Surface,                                !- Outside Boundary Condition
  {7192c684-743b-480b-8ca4-bc723e45bfb0}, !- Outside Boundary Condition Object
  NoSun,                                  !- Sun Exposure
  NoWind,                                 !- Wind Exposure
  ,                                       !- View Factor to Ground
  ,                                       !- Number of Vertices
  100, 0, 4,                              !- X,Y,Z Vertex 1 {m}
  100, 0, 0,                              !- X,Y,Z Vertex 2 {m}
  97, 3, 0,                               !- X,Y,Z Vertex 3 {m}
  97, 3, 4;                               !- X,Y,Z Vertex 4 {m}

OS:Surface,
  {76d84457-9d94-4cb2-9292-ea53c1377cdc}, !- Handle
  Surface 24,                             !- Name
  RoofCeiling,                            !- Surface Type
  ,                                       !- Construction Name
  {0ff6db33-b08d-401b-9525-99c9eef67580}, !- Space Name
  Surface,                                !- Outside Boundary Condition
  {ceba472c-30e6-4280-b560-602bb4c055cf}, !- Outside Boundary Condition Object
  NoSun,                                  !- Sun Exposure
  NoWind,                                 !- Wind Exposure
  ,                                       !- View Factor to Ground
  ,                                       !- Number of Vertices
  97, 3, 4,                               !- X,Y,Z Vertex 1 {m}
  3, 3, 4,                                !- X,Y,Z Vertex 2 {m}
  0, 0, 4,                                !- X,Y,Z Vertex 3 {m}
  100, 0, 4;                              !- X,Y,Z Vertex 4 {m}

OS:Space,
  {2dbbef82-f42f-4052-a690-e477b6d6ef0a}, !- Handle
  Story 1 Core Space,                     !- Name
  ,                                       !- Space Type Name
  ,                                       !- Default Construction Set Name
  ,                                       !- Default Schedule Set Name
  -0,                                     !- Direction of Relative North {deg}
  3,                                      !- X Origin {m}
  3,                                      !- Y Origin {m}
  0,                                      !- Z Origin {m}
  {c0bab92f-7c3e-49bc-afcf-a8272d75f3c8}, !- Building Story Name
  {5888282e-36ba-47d0-9489-23b4ca772f3f}; !- Thermal Zone Name

OS:Surface,
  {fb4d4495-17a4-4703-b62e-62c1a43c3460}, !- Handle
  Surface 25,                             !- Name
  Floor,                                  !- Surface Type
  ,                                       !- Construction Name
  {2dbbef82-f42f-4052-a690-e477b6d6ef0a}, !- Space Name
  Ground,                                 !- Outside Boundary Condition
  ,                                       !- Outside Boundary Condition Object
  NoSun,                                  !- Sun Exposure
  NoWind,                                 !- Wind Exposure
  ,                                       !- View Factor to Ground
  ,                                       !- Number of Vertices
  0, 0, 0,                                !- X,Y,Z Vertex 1 {m}
  0, 44, 0,                               !- X,Y,Z Vertex 2 {m}
  94, 44, 0,                              !- X,Y,Z Vertex 3 {m}
  94, 0, 0;                               !- X,Y,Z Vertex 4 {m}

OS:Surface,
  {dce48524-0437-4ede-be43-c1f7378a7132}, !- Handle
  Surface 26,                             !- Name
  Wall,                                   !- Surface Type
  ,                                       !- Construction Name
  {2dbbef82-f42f-4052-a690-e477b6d6ef0a}, !- Space Name
  Surface,                                !- Outside Boundary Condition
  {0c97dfde-1358-4848-951f-4af8e2206b59}, !- Outside Boundary Condition Object
  NoSun,                                  !- Sun Exposure
  NoWind,                                 !- Wind Exposure
  ,                                       !- View Factor to Ground
  ,                                       !- Number of Vertices
  0, 44, 4,                               !- X,Y,Z Vertex 1 {m}
  0, 44, 0,                               !- X,Y,Z Vertex 2 {m}
  0, 0, 0,                                !- X,Y,Z Vertex 3 {m}
  0, 0, 4;                                !- X,Y,Z Vertex 4 {m}

OS:Surface,
  {444282f0-ddbc-4cff-918c-233f4f4fc964}, !- Handle
  Surface 27,                             !- Name
  Wall,                                   !- Surface Type
  ,                                       !- Construction Name
  {2dbbef82-f42f-4052-a690-e477b6d6ef0a}, !- Space Name
  Surface,                                !- Outside Boundary Condition
  {e768020d-8da1-4a3d-995c-d05b6fbd64da}, !- Outside Boundary Condition Object
  NoSun,                                  !- Sun Exposure
  NoWind,                                 !- Wind Exposure
  ,                                       !- View Factor to Ground
  ,                                       !- Number of Vertices
  94, 44, 4,                              !- X,Y,Z Vertex 1 {m}
  94, 44, 0,                              !- X,Y,Z Vertex 2 {m}
  0, 44, 0,                               !- X,Y,Z Vertex 3 {m}
  0, 44, 4;                               !- X,Y,Z Vertex 4 {m}

OS:Surface,
  {995e27d8-5842-47e2-ad56-77157f605b25}, !- Handle
  Surface 28,                             !- Name
  Wall,                                   !- Surface Type
  ,                                       !- Construction Name
  {2dbbef82-f42f-4052-a690-e477b6d6ef0a}, !- Space Name