
OS:Version,
  {83993005-855b-49f7-a813-93f4448bffb7}, !- Handle
  2.9.0;                                  !- Version Identifier

OS:BuildingStory,
  {89327659-3318-42e5-9a48-9c544a1b6eb4}, !- Handle
  Story 1,                                !- Name
  0,                                      !- Nominal Z Coordinate {m}
  4,                                      !- Nominal Floor to Floor Height {m}
  ,                                       !- Default Construction Set Name
  ,                                       !- Default Schedule Set Name
  ;                                       !- Group Rendering Name

OS:Space,
  {c81ea3e2-a573-4bca-a271-d0c77280f23b}, !- Handle
  Story 1 West Perimeter Space,           !- Name
  ,                                       !- Space Type Name
  ,                                       !- Default Construction Set Name
  ,                                       !- Default Schedule Set Name
  -0,                                     !- Direction of Relative North {deg}
  0,                                      !- X Origin {m}
  0,                                      !- Y Origin {m}
  0,                                      !- Z Origin {m}
  {89327659-3318-42e5-9a48-9c544a1b6eb4}, !- Building Story Name
  {cb7b61d3-8f50-4d79-b861-f6724a636df2}; !- Thermal Zone Name

OS:Surface,
  {a34d2ea7-eca8-4688-968e-57539ef3d0c9}, !- Handle
  Surface 1,                              !- Name
  Floor,                                  !- Surface Type
  {14c62c46-e071-4799-9794-d084aac7f712}, !- Construction Name
  {c81ea3e2-a573-4bca-a271-d0c77280f23b}, !- Space Name
  Foundation,                             !- Outside Boundary Condition
  {bee228e5-5718-46cf-8e9d-b8033c40b03e}, !- Outside Boundary Condition Object
  NoSun,                                  !- Sun Exposure
  NoWind,                                 !- Wind Exposure
  ,                                       !- View Factor to Ground
  ,                                       !- Number of Vertices
  0, 0, 0,                                !- X,Y,Z Vertex 1 {m}
  0, 50, 0,                               !- X,Y,Z Vertex 2 {m}
  3, 47, 0,                               !- X,Y,Z Vertex 3 {m}
  3, 3, 0;                                !- X,Y,Z Vertex 4 {m}

OS:Surface,
  {d51b5a3c-c675-4f43-8419-51484cd5b6b9}, !- Handle
  Surface 2,                              !- Name
  Wall,                                   !- Surface Type
  ,                                       !- Construction Name
  {c81ea3e2-a573-4bca-a271-d0c77280f23b}, !- Space Name
  Outdoors,                               !- Outside Boundary Condition
  ,                                       !- Outside Boundary Condition Object
  SunExposed,                             !- Sun Exposure
  WindExposed,                            !- Wind Exposure
  ,                                       !- View Factor to Ground
  ,                                       !- Number of Vertices
  0, 50, 4,                               !- X,Y,Z Vertex 1 {m}
  0, 50, 0,                               !- X,Y,Z Vertex 2 {m}
  0, 0, 0,                                !- X,Y,Z Vertex 3 {m}
  0, 0, 4;                                !- X,Y,Z Vertex 4 {m}

OS:Surface,
  {cf9d89dc-67a5-4f78-b464-f400155a5c51}, !- Handle
  Surface 3,                              !- Name
  Wall,                                   !- Surface Type
  ,                                       !- Construction Name
  {c81ea3e2-a573-4bca-a271-d0c77280f23b}, !- Space Name
  Surface,                                !- Outside Boundary Condition
  {62d00567-73d5-45ea-a923-2e2256ebf00e}, !- Outside Boundary Condition Object
  NoSun,                                  !- Sun Exposure
  NoWind,                                 !- Wind Exposure
  ,                                       !- View Factor to Ground
  ,                                       !- Number of Vertices
  3, 47, 4,                               !- X,Y,Z Vertex 1 {m}
  3, 47, 0,                               !- X,Y,Z Vertex 2 {m}
  0, 50, 0,                               !- X,Y,Z Vertex 3 {m}
  0, 50, 4;                               !- X,Y,Z Vertex 4 {m}

OS:Surface,
  {0a7f4008-ecf7-4854-b27a-14a1c4817491}, !- Handle
  Surface 4,                              !- Name
  Wall,                                   !- Surface Type
  ,                                       !- Construction Name
  {c81ea3e2-a573-4bca-a271-d0c77280f23b}, !- Space Name
  Surface,                                !- Outside Boundary Condition
  {8d41dd01-543a-46ed-9b95-26c227cbef52}, !- Outside Boundary Condition Object
  NoSun,                                  !- Sun Exposure
  NoWind,                                 !- Wind Exposure
  ,                                       !- View Factor to Ground
  ,                                       !- Number of Vertices
  3, 3, 4,                                !- X,Y,Z Vertex 1 {m}
  3, 3, 0,                                !- X,Y,Z Vertex 2 {m}
  3, 47, 0,                               !- X,Y,Z Vertex 3 {m}
  3, 47, 4;                               !- X,Y,Z Vertex 4 {m}

OS:Surface,
  {2f4cbaf3-3f18-4bbb-96e2-bd61956e5a3f}, !- Handle
  Surface 5,                              !- Name
  Wall,                                   !- Surface Type
  ,                                       !- Construction Name
  {c81ea3e2-a573-4bca-a271-d0c77280f23b}, !- Space Name
  Surface,                                !- Outside Boundary Condition
  {738362be-3a44-4726-a8ed-6e1aa4715722}, !- Outside Boundary Condition Object
  NoSun,                                  !- Sun Exposure
  NoWind,                                 !- Wind Exposure
  ,                                       !- View Factor to Ground
  ,                                       !- Number of Vertices
  0, 0, 4,                                !- X,Y,Z Vertex 1 {m}
  0, 0, 0,                                !- X,Y,Z Vertex 2 {m}
  3, 3, 0,                                !- X,Y,Z Vertex 3 {m}
  3, 3, 4;                                !- X,Y,Z Vertex 4 {m}

OS:Surface,
  {ec83e942-0cf9-4f28-9dfd-062ee8360543}, !- Handle
  Surface 6,                              !- Name
  RoofCeiling,                            !- Surface Type
  ,                                       !- Construction Name
  {c81ea3e2-a573-4bca-a271-d0c77280f23b}, !- Space Name
  Surface,                                !- Outside Boundary Condition
  {06e4613b-8e41-44c6-8988-9e34e8820db0}, !- Outside Boundary Condition Object
  NoSun,                                  !- Sun Exposure
  NoWind,                                 !- Wind Exposure
  ,                                       !- View Factor to Ground
  ,                                       !- Number of Vertices
  3, 3, 4,                                !- X,Y,Z Vertex 1 {m}
  3, 47, 4,                               !- X,Y,Z Vertex 2 {m}
  0, 50, 4,                               !- X,Y,Z Vertex 3 {m}
  0, 0, 4;                                !- X,Y,Z Vertex 4 {m}

OS:Space,
  {760f7a03-1aee-4788-b717-5dae1b97662d}, !- Handle
  Story 1 North Perimeter Space,          !- Name
  ,                                       !- Space Type Name
  ,                                       !- Default Construction Set Name
  ,                                       !- Default Schedule Set Name
  -0,                                     !- Direction of Relative North {deg}
  3,                                      !- X Origin {m}
  47,                                     !- Y Origin {m}
  0,                                      !- Z Origin {m}
  {89327659-3318-42e5-9a48-9c544a1b6eb4}, !- Building Story Name
  {c9b000c2-4d1c-4d81-9725-957d875b7022}; !- Thermal Zone Name

OS:Surface,
  {d1a31404-96d6-4108-a080-8e3f5032a4c6}, !- Handle
  Surface 7,                              !- Name
  Floor,                                  !- Surface Type
  {14c62c46-e071-4799-9794-d084aac7f712}, !- Construction Name
  {760f7a03-1aee-4788-b717-5dae1b97662d}, !- Space Name
  Foundation,                             !- Outside Boundary Condition
  {bee228e5-5718-46cf-8e9d-b8033c40b03e}, !- Outside Boundary Condition Object
  NoSun,                                  !- Sun Exposure
  NoWind,                                 !- Wind Exposure
  ,                                       !- View Factor to Ground
  ,                                       !- Number of Vertices
  -3, 3, 0,                               !- X,Y,Z Vertex 1 {m}
  97, 3, 0,                               !- X,Y,Z Vertex 2 {m}
  94, 0, 0,                               !- X,Y,Z Vertex 3 {m}
  0, 0, 0;                                !- X,Y,Z Vertex 4 {m}

OS:Surface,
  {e03b9154-f521-4c39-9018-bad2b8c42b87}, !- Handle
  Surface 8,                              !- Name
  Wall,                                   !- Surface Type
  ,                                       !- Construction Name
  {760f7a03-1aee-4788-b717-5dae1b97662d}, !- Space Name
  Outdoors,                               !- Outside Boundary Condition
  ,                                       !- Outside Boundary Condition Object
  SunExposed,                             !- Sun Exposure
  WindExposed,                            !- Wind Exposure
  ,                                       !- View Factor to Ground
  ,                                       !- Number of Vertices
  97, 3, 4,                               !- X,Y,Z Vertex 1 {m}
  97, 3, 0,                               !- X,Y,Z Vertex 2 {m}
  -3, 3, 0,                               !- X,Y,Z Vertex 3 {m}
  -3, 3, 4;                               !- X,Y,Z Vertex 4 {m}

OS:Surface,
  {838500d2-89a9-40df-8712-d3f649e18bde}, !- Handle
  Surface 9,                              !- Name
  Wall,                                   !- Surface Type
  ,                                       !- Construction Name
  {760f7a03-1aee-4788-b717-5dae1b97662d}, !- Space Name
  Surface,                                !- Outside Boundary Condition
  {513ad034-5609-422b-8ccb-90b591ce9259}, !- Outside Boundary Condition Object
  NoSun,                                  !- Sun Exposure
  NoWind,                                 !- Wind Exposure
  ,                                       !- View Factor to Ground
  ,                                       !- Number of Vertices
  94, 0, 4,                               !- X,Y,Z Vertex 1 {m}
  94, 0, 0,                               !- X,Y,Z Vertex 2 {m}
  97, 3, 0,                               !- X,Y,Z Vertex 3 {m}
  97, 3, 4;                               !- X,Y,Z Vertex 4 {m}

OS:Surface,
  {02884798-0174-41a9-b4b2-5ed44d45542f}, !- Handle
  Surface 10,                             !- Name
  Wall,                                   !- Surface Type
  ,                                       !- Construction Name
  {760f7a03-1aee-4788-b717-5dae1b97662d}, !- Space Name
  Surface,                                !- Outside Boundary Condition
  {563a6b7d-771f-4628-8db3-1dee3cd721b2}, !- Outside Boundary Condition Object
  NoSun,                                  !- Sun Exposure
  NoWind,                                 !- Wind Exposure
  ,                                       !- View Factor to Ground
  ,                                       !- Number of Vertices
  0, 0, 4,                                !- X,Y,Z Vertex 1 {m}
  0, 0, 0,                                !- X,Y,Z Vertex 2 {m}
  94, 0, 0,                               !- X,Y,Z Vertex 3 {m}
  94, 0, 4;                               !- X,Y,Z Vertex 4 {m}

OS:Surface,
  {62d00567-73d5-45ea-a923-2e2256ebf00e}, !- Handle
  Surface 11,                             !- Name
  Wall,                                   !- Surface Type
  ,                                       !- Construction Name
  {760f7a03-1aee-4788-b717-5dae1b97662d}, !- Space Name
  Surface,                                !- Outside Boundary Condition
  {cf9d89dc-67a5-4f78-b464-f400155a5c51}, !- Outside Boundary Condition Object
  NoSun,                                  !- Sun Exposure
  NoWind,                                 !- Wind Exposure
  ,                                       !- View Factor to Ground
  ,                                       !- Number of Vertices
  -3, 3, 4,                               !- X,Y,Z Vertex 1 {m}
  -3, 3, 0,                               !- X,Y,Z Vertex 2 {m}
  0, 0, 0,                                !- X,Y,Z Vertex 3 {m}
  0, 0, 4;                                !- X,Y,Z Vertex 4 {m}

OS:Surface,
  {6cc9e2d3-5901-498a-9af5-542aaaf80bdc}, !- Handle
  Surface 12,                             !- Name
  RoofCeiling,                            !- Surface Type
  ,                                       !- Construction Name
  {760f7a03-1aee-4788-b717-5dae1b97662d}, !- Space Name
  Surface,                                !- Outside Boundary Condition
  {7139440d-479b-45e8-b98f-7e8ae58ed130}, !- Outside Boundary Condition Object
  NoSun,                                  !- Sun Exposure
  NoWind,                                 !- Wind Exposure
  ,                                       !- View Factor to Ground
  ,                                       !- Number of Vertices
  0, 0, 4,                                !- X,Y,Z Vertex 1 {m}
  94, 0, 4,                               !- X,Y,Z Vertex 2 {m}
  97, 3, 4,                               !- X,Y,Z Vertex 3 {m}
  -3, 3, 4;                               !- X,Y,Z Vertex 4 {m}

OS:Space,
  {cd8cb995-e97a-4388-a5e0-c125af14646b}, !- Handle
  Story 1 East Perimeter Space,           !- Name
  ,                                       !- Space Type Name
  ,                                       !- Default Construction Set Name
  ,                                       !- Default Schedule Set Name
  -0,                                     !- Direction of Relative North {deg}
  97,                                     !- X Origin {m}
  3,                                      !- Y Origin {m}
  0,                                      !- Z Origin {m}
  {89327659-3318-42e5-9a48-9c544a1b6eb4}, !- Building Story Name
  {aed300c8-7785-4daa-ae10-23bd690c2850}; !- Thermal Zone Name

OS:Surface,
  {b617484b-8151-473d-b474-e410d2e57fe2}, !- Handle
  Surface 13,                             !- Name
  Floor,                                  !- Surface Type
  {14c62c46-e071-4799-9794-d084aac7f712}, !- Construction Name
  {cd8cb995-e97a-4388-a5e0-c125af14646b}, !- Space Name
  Foundation,                             !- Outside Boundary Condition
  {bee228e5-5718-46cf-8e9d-b8033c40b03e}, !- Outside Boundary Condition Object
  NoSun,                                  !- Sun Exposure
  NoWind,                                 !- Wind Exposure
  ,                                       !- View Factor to Ground
  ,                                       !- Number of Vertices
  3, 47, 0,                               !- X,Y,Z Vertex 1 {m}
  3, -3, 0,                               !- X,Y,Z Vertex 2 {m}
  0, 0, 0,                                !- X,Y,Z Vertex 3 {m}
  0, 44, 0;                               !- X,Y,Z Vertex 4 {m}

OS:Surface,
  {c06e3b58-8b75-4cae-a3fa-6b69179bc159}, !- Handle
  Surface 14,                             !- Name
  Wall,                                   !- Surface Type
  ,                                       !- Construction Name
  {cd8cb995-e97a-4388-a5e0-c125af14646b}, !- Space Name
  Outdoors,                               !- Outside Boundary Condition
  ,                                       !- Outside Boundary Condition Object
  SunExposed,                             !- Sun Exposure
  WindExposed,                            !- Wind Exposure
  ,                                       !- View Factor to Ground
  ,                                       !- Number of Vertices
  3, -3, 4,                               !- X,Y,Z Vertex 1 {m}
  3, -3, 0,                               !- X,Y,Z Vertex 2 {m}
  3, 47, 0,                               !- X,Y,Z Vertex 3 {m}
  3, 47, 4;                               !- X,Y,Z Vertex 4 {m}

OS:Surface,
  {c1a74aca-64f9-4e93-90a9-a7ae92bd1d75}, !- Handle
  Surface 15,                             !- Name
  Wall,                                   !- Surface Type
  ,                                       !- Construction Name
  {cd8cb995-e97a-4388-a5e0-c125af14646b}, !- Space Name
  Surface,                                !- Outside Boundary Condition
  {274a136e-7152-46d5-9713-7c2b48667cc0}, !- Outside Boundary Condition Object
  NoSun,                                  !- Sun Exposure
  NoWind,                                 !- Wind Exposure
  ,                                       !- View Factor to Ground
  ,                                       !- Number of Vertices
  0, 0, 4,                                !- X,Y,Z Vertex 1 {m}
  0, 0, 0,                                !- X,Y,Z Vertex 2 {m}
  3, -3, 0,                               !- X,Y,Z Vertex 3 {m}
  3, -3, 4;                               !- X,Y,Z Vertex 4 {m}

OS:Surface,
  {d2f5bf2e-a64b-4dca-9dc5-3c458150c4e6}, !- Handle
  Surface 16,                             !- Name
  Wall,                                   !- Surface Type
  ,                                       !- Construction Name
  {cd8cb995-e97a-4388-a5e0-c125af14646b}, !- Space Name
  Surface,                                !- Outside Boundary Condition
  {eb14d9c5-0147-410f-b2f0-299bcdfc9f3e}, !- Outside Boundary Condition Object
  NoSun,                                  !- Sun Exposure
  NoWind,                                 !- Wind Exposure
  ,                                       !- View Factor to Ground
  ,                                       !- Number of Vertices
  0, 44, 4,                               !- X,Y,Z Vertex 1 {m}
  0, 44, 0,                               !- X,Y,Z Vertex 2 {m}
  0, 0, 0,                                !- X,Y,Z Vertex 3 {m}
  0, 0, 4;                                !- X,Y,Z Vertex 4 {m}

OS:Surface,
  {513ad034-5609-422b-8ccb-90b591ce9259}, !- Handle
  Surface 17,                             !- Name
  Wall,                                   !- Surface Type
  ,                                       !- Construction Name
  {cd8cb995-e97a-4388-a5e0-c125af14646b}, !- Space Name
  Surface,                                !- Outside Boundary Condition
  {838500d2-89a9-40df-8712-d3f649e18bde}, !- Outside Boundary Condition Object
  NoSun,                                  !- Sun Exposure
  NoWind,                                 !- Wind Exposure
  ,                                       !- View Factor to Ground
  ,                                       !- Number of Vertices
  3, 47, 4,                               !- X,Y,Z Vertex 1 {m}
  3, 47, 0,                               !- X,Y,Z Vertex 2 {m}
  0, 44, 0,                               !- X,Y,Z Vertex 3 {m}
  0, 44, 4;                               !- X,Y,Z Vertex 4 {m}

OS:Surface,
  {042ce22e-d24a-4c9d-b802-5ff34bb6b037}, !- Handle
  Surface 18,                             !- Name
  RoofCeiling,                            !- Surface Type
  ,                                       !- Construction Name
  {cd8cb995-e97a-4388-a5e0-c125af14646b}, !- Space Name
  Surface,                                !- Outside Boundary Condition
  {b9d44848-be34-4c2d-9680-d6711db1b35d}, !- Outside Boundary Condition Object
  NoSun,                                  !- Sun Exposure
  NoWind,                                 !- Wind Exposure
  ,                                       !- View Factor to Ground
  ,                                       !- Number of Vertices
  0, 44, 4,                               !- X,Y,Z Vertex 1 {m}
  0, 0, 4,                                !- X,Y,Z Vertex 2 {m}
  3, -3, 4,                               !- X,Y,Z Vertex 3 {m}
  3, 47, 4;                               !- X,Y,Z Vertex 4 {m}

OS:Space,
  {2d335153-cbe1-4eee-a7de-ce852d482153}, !- Handle
  Story 1 South Perimeter Space,          !- Name
  ,                                       !- Space Type Name
  ,                                       !- Default Construction Set Name
  ,                                       !- Default Schedule Set Name
  -0,                                     !- Direction of Relative North {deg}
  0,                                      !- X Origin {m}
  0,                                      !- Y Origin {m}
  0,                                      !- Z Origin {m}
  {89327659-3318-42e5-9a48-9c544a1b6eb4}, !- Building Story Name
  {380e6aaf-f792-4ced-b007-785f7617d5ea}; !- Thermal Zone Name

OS:Surface,
  {b9d7cf19-00c9-44c3-b796-65e2aa827865}, !- Handle
  Surface 19,                             !- Name
  Floor,                                  !- Surface Type
  {14c62c46-e071-4799-9794-d084aac7f712}, !- Construction Name
  {2d335153-cbe1-4eee-a7de-ce852d482153}, !- Space Name
  Foundation,                             !- Outside Boundary Condition
  {bee228e5-5718-46cf-8e9d-b8033c40b03e}, !- Outside Boundary Condition Object
  NoSun,                                  !- Sun Exposure
  NoWind,                                 !- Wind Exposure
  ,                                       !- View Factor to Ground
  ,                                       !- Number of Vertices
  100, 0, 0,                              !- X,Y,Z Vertex 1 {m}
  0, 0, 0,                                !- X,Y,Z Vertex 2 {m}
  3, 3, 0,                                !- X,Y,Z Vertex 3 {m}
  97, 3, 0;                               !- X,Y,Z Vertex 4 {m}

OS:Surface,
  {211dcce8-6443-4c75-9eb4-cb19fce6e429}, !- Handle
  Surface 20,                             !- Name
  Wall,                                   !- Surface Type
  ,                                       !- Construction Name
  {2d335153-cbe1-4eee-a7de-ce852d482153}, !- Space Name
  Outdoors,                               !- Outside Boundary Condition
  ,                                       !- Outside Boundary Condition Object
  SunExposed,                             !- Sun Exposure
  WindExposed,                            !- Wind Exposure
  ,                                       !- View Factor to Ground
  ,                                       !- Number of Vertices
  0, 0, 4,                                !- X,Y,Z Vertex 1 {m}
  0, 0, 0,                                !- X,Y,Z Vertex 2 {m}
  100, 0, 0,                              !- X,Y,Z Vertex 3 {m}
  100, 0, 4;                              !- X,Y,Z Vertex 4 {m}

OS:Surface,
  {738362be-3a44-4726-a8ed-6e1aa4715722}, !- Handle
  Surface 21,                             !- Name
  Wall,                                   !- Surface Type
  ,                                       !- Construction Name
  {2d335153-cbe1-4eee-a7de-ce852d482153}, !- Space Name
  Surface,                                !- Outside Boundary Condition
  {2f4cbaf3-3f18-4bbb-96e2-bd61956e5a3f}, !- Outside Boundary Condition Object
  NoSun,                                  !- Sun Exposure
  NoWind,                                 !- Wind Exposure
  ,                                       !- View Factor to Ground
  ,                                       !- Number of Vertices
  3, 3, 4,                                !- X,Y,Z Vertex 1 {m}
  3, 3, 0,                                !- X,Y,Z Vertex 2 {m}
  0, 0, 0,                                !- X,Y,Z Vertex 3 {m}
  0, 0, 4;                                !- X,Y,Z Vertex 4 {m}

OS:Surface,
  {2a560029-6fc2-4c50-bd5e-c0777974a98b}, !- Handle
  Surface 22,                             !- Name
  Wall,                                   !- Surface Type
  ,                                       !- Construction Name
  {2d335153-cbe1-4eee-a7de-ce852d482153}, !- Space Name
  Surface,                                !- Outside Boundary Condition
  {a23d493b-e8da-445b-ab3e-82653c5fc668}, !- Outside Boundary Condition Object
  NoSun,                                  !- Sun Exposure
  NoWind,                                 !- Wind Exposure
  ,                                       !- View Factor to Ground
  ,                                       !- Number of Vertices
  97, 3, 4,                               !- X,Y,Z Vertex 1 {m}
  97, 3, 0,                               !- X,Y,Z Vertex 2 {m}
  3, 3, 0,                                !- X,Y,Z Vertex 3 {m}
  3, 3, 4;                                !- X,Y,Z Vertex 4 {m}

OS:Surface,
  {274a136e-7152-46d5-9713-7c2b48667cc0}, !- Handle
  Surface 23,                             !- Name
  Wall,                                   !- Surface Type
  ,                                       !- Construction Name
  {2d335153-cbe1-4eee-a7de-ce852d482153}, !- Space Name
  Surface,                                !- Outside Boundary Condition
  {c1a74aca-64f9-4e93-90a9-a7ae92bd1d75}, !- Outside Boundary Condition Object
  NoSun,                                  !- Sun Exposure
  NoWind,                                 !- Wind Exposure
  ,                                       !- View Factor to Ground
  ,                                       !- Number of Vertices
  100, 0, 4,                              !- X,Y,Z Vertex 1 {m}
  100, 0, 0,                              !- X,Y,Z Vertex 2 {m}
  97, 3, 0,                               !- X,Y,Z Vertex 3 {m}
  97, 3, 4;                               !- X,Y,Z Vertex 4 {m}

OS:Surface,
  {30f59309-b718-4484-8c48-8899052fe5af}, !- Handle
  Surface 24,                             !- Name
  RoofCeiling,                            !- Surface Type
  ,                                       !- Construction Name
  {2d335153-cbe1-4eee-a7de-ce852d482153}, !- Space Name
  Surface,                                !- Outside Boundary Condition
  {e73b9a36-11c0-44e0-90c5-363461d0f083}, !- Outside Boundary Condition Object
  NoSun,                                  !- Sun Exposure
  NoWind,                                 !- Wind Exposure
  ,                                       !- View Factor to Ground
  ,                                       !- Number of Vertices
  97, 3, 4,                               !- X,Y,Z Vertex 1 {m}
  3, 3, 4,                                !- X,Y,Z Vertex 2 {m}
  0, 0, 4,                                !- X,Y,Z Vertex 3 {m}
  100, 0, 4;                              !- X,Y,Z Vertex 4 {m}

OS:Space,
  {7d31bfaf-1806-4a58-a089-d6d037913257}, !- Handle
  Story 1 Core Space,                     !- Name
  ,                                       !- Space Type Name
  ,                                       !- Default Construction Set Name
  ,                                       !- Default Schedule Set Name
  -0,                                     !- Direction of Relative North {deg}
  3,                                      !- X Origin {m}
  3,                                      !- Y Origin {m}
  0,                                      !- Z Origin {m}
  {89327659-3318-42e5-9a48-9c544a1b6eb4}, !- Building Story Name
  {759e743c-20d9-4f95-8372-d9b1f6a90269}; !- Thermal Zone Name

OS:Surface,
  {7a914f8b-a469-47ff-960e-eb3914982291}, !- Handle
  Surface 25,                             !- Name
  Floor,                                  !- Surface Type
  {14c62c46-e071-4799-9794-d084aac7f712}, !- Construction Name
  {7d31bfaf-1806-4a58-a089-d6d037913257}, !- Space Name
  Foundation,                             !- Outside Boundary Condition
  {bee228e5-5718-46cf-8e9d-b8033c40b03e}, !- Outside Boundary Condition Object
  NoSun,                                  !- Sun Exposure
  NoWind,                                 !- Wind Exposure
  ,                                       !- View Factor to Ground
  ,                                       !- Number of Vertices
  0, 0, 0,                                !- X,Y,Z Vertex 1 {m}
  0, 44, 0,                               !- X,Y,Z Vertex 2 {m}
  94, 44, 0,                              !- X,Y,Z Vertex 3 {m}
  94, 0, 0;                               !- X,Y,Z Vertex 4 {m}

OS:Surface,
  {8d41dd01-543a-46ed-9b95-26c227cbef52}, !- Handle
  Surface 26,                             !- Name
  Wall,                                   !- Surface Type
  ,                                       !- Construction Name
  {7d31bfaf-1806-4a58-a089-d6d037913257}, !- Space Name
  Surface,                                !- Outside Boundary Condition
  {0a7f4008-ecf7-4854-b27a-14a1c4817491}, !- Outside Boundary Condition Object
  NoSun,                                  !- Sun Exposure
  NoWind,                                 !- Wind Exposure
  ,                                       !- View Factor to Ground
  ,                                       !- Number of Vertices
  0, 44, 4,                               !- X,Y,Z Vertex 1 {m}
  0, 44, 0,                               !- X,Y,Z Vertex 2 {m}
  0, 0, 0,                                !- X,Y,Z Vertex 3 {m}
  0, 0, 4;                                !- X,Y,Z Vertex 4 {m}

OS:Surface,
  {563a6b7d-771f-4628-8db3-1dee3cd721b2}, !- Handle
  Surface 27,                             !- Name
  Wall,                                   !- Surface Type
  ,                                       !- Construction Name
  {7d31bfaf-1806-4a58-a089-d6d037913257}, !- Space Name
  Surface,                                !- Outside Boundary Condition
  {02884798-0174-41a9-b4b2-5ed44d45542f}, !- Outside Boundary Condition Object
  NoSun,                                  !- Sun Exposure
  NoWind,                                 !- Wind Exposure
  ,                                       !- View Factor to Ground
  ,                                       !- Number of Vertices
  94, 44, 4,                              !- X,Y,Z Vertex 1 {m}
  94, 44, 0,                              !- X,Y,Z Vertex 2 {m}
  0, 44, 0,                               !- X,Y,Z Vertex 3 {m}
  0, 44, 4;                               !- X,Y,Z Vertex 4 {m}

OS:Surface,
  {eb14d9c5-0147-410f-b2f0-299bcdfc9f3e}, !- Handle
  Surface 28,                             !- Name
  Wall,                                   !- Surface Type
  ,                                       !- Construction Name
  {7d31bfaf-1806-4a58-a089-d6d037913257}, !- Space Name