
OS:Version,
  {82863943-41ef-4684-9c76-f976e73a8109}, !- Handle
  2.8.1;                                  !- Version Identifier

OS:BuildingStory,
  {0d175a10-003c-4a4e-8c06-05dc84228edf}, !- Handle
  Story 1,                                !- Name
  0,                                      !- Nominal Z Coordinate {m}
  4,                                      !- Nominal Floor to Floor Height {m}
  ,                                       !- Default Construction Set Name
  ,                                       !- Default Schedule Set Name
  ;                                       !- Group Rendering Name

OS:Space,
  {ac67638b-2902-4431-adda-cd06c85ad768}, !- Handle
  Story 1 West Perimeter Space,           !- Name
  ,                                       !- Space Type Name
  ,                                       !- Default Construction Set Name
  ,                                       !- Default Schedule Set Name
  -0,                                     !- Direction of Relative North {deg}
  0,                                      !- X Origin {m}
  0,                                      !- Y Origin {m}
  0,                                      !- Z Origin {m}
  {0d175a10-003c-4a4e-8c06-05dc84228edf}, !- Building Story Name
  {c7adc33c-5312-4ad8-a9f9-bd2631f097b2}; !- Thermal Zone Name

OS:Surface,
  {c602993c-d8a0-4192-b100-dc930b4ca839}, !- Handle
  Surface 1,                              !- Name
  Floor,                                  !- Surface Type
  {c5f29c50-9f50-48ac-b7e7-6a1966bbe1c7}, !- Construction Name
  {ac67638b-2902-4431-adda-cd06c85ad768}, !- Space Name
  Foundation,                             !- Outside Boundary Condition
  {c6b912fe-083f-4195-baca-04309cb2631b}, !- Outside Boundary Condition Object
  NoSun,                                  !- Sun Exposure
  NoWind,                                 !- Wind Exposure
  ,                                       !- View Factor to Ground
  ,                                       !- Number of Vertices
  0, 0, 0,                                !- X,Y,Z Vertex 1 {m}
  0, 50, 0,                               !- X,Y,Z Vertex 2 {m}
  3, 47, 0,                               !- X,Y,Z Vertex 3 {m}
  3, 3, 0;                                !- X,Y,Z Vertex 4 {m}

OS:Surface,
  {eef68234-7543-43b8-a09c-a85da86e4014}, !- Handle
  Surface 2,                              !- Name
  Wall,                                   !- Surface Type
  ,                                       !- Construction Name
  {ac67638b-2902-4431-adda-cd06c85ad768}, !- Space Name
  Outdoors,                               !- Outside Boundary Condition
  ,                                       !- Outside Boundary Condition Object
  SunExposed,                             !- Sun Exposure
  WindExposed,                            !- Wind Exposure
  ,                                       !- View Factor to Ground
  ,                                       !- Number of Vertices
  0, 50, 4,                               !- X,Y,Z Vertex 1 {m}
  0, 50, 0,                               !- X,Y,Z Vertex 2 {m}
  0, 0, 0,                                !- X,Y,Z Vertex 3 {m}
  0, 0, 4;                                !- X,Y,Z Vertex 4 {m}

OS:Surface,
  {087a6ca7-5004-46ee-9a9c-d7b37be110b6}, !- Handle
  Surface 3,                              !- Name
  Wall,                                   !- Surface Type
  ,                                       !- Construction Name
  {ac67638b-2902-4431-adda-cd06c85ad768}, !- Space Name
  Surface,                                !- Outside Boundary Condition
  {9d98df27-6850-4159-a5bd-e4f77cf803f1}, !- Outside Boundary Condition Object
  NoSun,                                  !- Sun Exposure
  NoWind,                                 !- Wind Exposure
  ,                                       !- View Factor to Ground
  ,                                       !- Number of Vertices
  3, 47, 4,                               !- X,Y,Z Vertex 1 {m}
  3, 47, 0,                               !- X,Y,Z Vertex 2 {m}
  0, 50, 0,                               !- X,Y,Z Vertex 3 {m}
  0, 50, 4;                               !- X,Y,Z Vertex 4 {m}

OS:Surface,
  {b8e8afba-41ab-478a-bfa0-6c37d68dbcda}, !- Handle
  Surface 4,                              !- Name
  Wall,                                   !- Surface Type
  ,                                       !- Construction Name
  {ac67638b-2902-4431-adda-cd06c85ad768}, !- Space Name
  Surface,                                !- Outside Boundary Condition
  {4ffab8a4-b502-4dd8-9304-0be54114c8ef}, !- Outside Boundary Condition Object
  NoSun,                                  !- Sun Exposure
  NoWind,                                 !- Wind Exposure
  ,                                       !- View Factor to Ground
  ,                                       !- Number of Vertices
  3, 3, 4,                                !- X,Y,Z Vertex 1 {m}
  3, 3, 0,                                !- X,Y,Z Vertex 2 {m}
  3, 47, 0,                               !- X,Y,Z Vertex 3 {m}
  3, 47, 4;                               !- X,Y,Z Vertex 4 {m}

OS:Surface,
  {ca13a88d-ec98-428b-bbec-8ff5e651e85e}, !- Handle
  Surface 5,                              !- Name
  Wall,                                   !- Surface Type
  ,                                       !- Construction Name
  {ac67638b-2902-4431-adda-cd06c85ad768}, !- Space Name
  Surface,                                !- Outside Boundary Condition
  {58aa4fd2-306e-45bc-82cb-675164bea217}, !- Outside Boundary Condition Object
  NoSun,                                  !- Sun Exposure
  NoWind,                                 !- Wind Exposure
  ,                                       !- View Factor to Ground
  ,                                       !- Number of Vertices
  0, 0, 4,                                !- X,Y,Z Vertex 1 {m}
  0, 0, 0,                                !- X,Y,Z Vertex 2 {m}
  3, 3, 0,                                !- X,Y,Z Vertex 3 {m}
  3, 3, 4;                                !- X,Y,Z Vertex 4 {m}

OS:Surface,
  {92548b32-177a-4cf0-9b80-466591fd150b}, !- Handle
  Surface 6,                              !- Name
  RoofCeiling,                            !- Surface Type
  ,                                       !- Construction Name
  {ac67638b-2902-4431-adda-cd06c85ad768}, !- Space Name
  Surface,                                !- Outside Boundary Condition
  {78caa006-3250-489d-9370-d9c20157dd76}, !- Outside Boundary Condition Object
  NoSun,                                  !- Sun Exposure
  NoWind,                                 !- Wind Exposure
  ,                                       !- View Factor to Ground
  ,                                       !- Number of Vertices
  3, 3, 4,                                !- X,Y,Z Vertex 1 {m}
  3, 47, 4,                               !- X,Y,Z Vertex 2 {m}
  0, 50, 4,                               !- X,Y,Z Vertex 3 {m}
  0, 0, 4;                                !- X,Y,Z Vertex 4 {m}

OS:Space,
  {aa6a6aca-f4e1-4fb5-b0b3-62a2e6ae84d9}, !- Handle
  Story 1 North Perimeter Space,          !- Name
  ,                                       !- Space Type Name
  ,                                       !- Default Construction Set Name
  ,                                       !- Default Schedule Set Name
  -0,                                     !- Direction of Relative North {deg}
  3,                                      !- X Origin {m}
  47,                                     !- Y Origin {m}
  0,                                      !- Z Origin {m}
  {0d175a10-003c-4a4e-8c06-05dc84228edf}, !- Building Story Name
  {098d634a-59fd-4ed4-a779-a442151c05b1}; !- Thermal Zone Name

OS:Surface,
  {68439ce0-0939-402c-b308-2dfd34908c39}, !- Handle
  Surface 7,                              !- Name
  Floor,                                  !- Surface Type
  {c5f29c50-9f50-48ac-b7e7-6a1966bbe1c7}, !- Construction Name
  {aa6a6aca-f4e1-4fb5-b0b3-62a2e6ae84d9}, !- Space Name
  Foundation,                             !- Outside Boundary Condition
  {c6b912fe-083f-4195-baca-04309cb2631b}, !- Outside Boundary Condition Object
  NoSun,                                  !- Sun Exposure
  NoWind,                                 !- Wind Exposure
  ,                                       !- View Factor to Ground
  ,                                       !- Number of Vertices
  -3, 3, 0,                               !- X,Y,Z Vertex 1 {m}
  97, 3, 0,                               !- X,Y,Z Vertex 2 {m}
  94, 0, 0,                               !- X,Y,Z Vertex 3 {m}
  0, 0, 0;                                !- X,Y,Z Vertex 4 {m}

OS:Surface,
  {4a886c1c-901d-4520-958a-551cc349a97d}, !- Handle
  Surface 8,                              !- Name
  Wall,                                   !- Surface Type
  ,                                       !- Construction Name
  {aa6a6aca-f4e1-4fb5-b0b3-62a2e6ae84d9}, !- Space Name
  Outdoors,                               !- Outside Boundary Condition
  ,                                       !- Outside Boundary Condition Object
  SunExposed,                             !- Sun Exposure
  WindExposed,                            !- Wind Exposure
  ,                                       !- View Factor to Ground
  ,                                       !- Number of Vertices
  97, 3, 4,                               !- X,Y,Z Vertex 1 {m}
  97, 3, 0,                               !- X,Y,Z Vertex 2 {m}
  -3, 3, 0,                               !- X,Y,Z Vertex 3 {m}
  -3, 3, 4;                               !- X,Y,Z Vertex 4 {m}

OS:Surface,
  {85b52ab4-cf5d-40c6-8ea6-a043e6af5f58}, !- Handle
  Surface 9,                              !- Name
  Wall,                                   !- Surface Type
  ,                                       !- Construction Name
  {aa6a6aca-f4e1-4fb5-b0b3-62a2e6ae84d9}, !- Space Name
  Surface,                                !- Outside Boundary Condition
  {031ab4fd-e284-400f-950c-4d013b57c82f}, !- Outside Boundary Condition Object
  NoSun,                                  !- Sun Exposure
  NoWind,                                 !- Wind Exposure
  ,                                       !- View Factor to Ground
  ,                                       !- Number of Vertices
  94, 0, 4,                               !- X,Y,Z Vertex 1 {m}
  94, 0, 0,                               !- X,Y,Z Vertex 2 {m}
  97, 3, 0,                               !- X,Y,Z Vertex 3 {m}
  97, 3, 4;                               !- X,Y,Z Vertex 4 {m}

OS:Surface,
  {38bbbf0b-9da9-462e-b45c-11a6ade0f53b}, !- Handle
  Surface 10,                             !- Name
  Wall,                                   !- Surface Type
  ,                                       !- Construction Name
  {aa6a6aca-f4e1-4fb5-b0b3-62a2e6ae84d9}, !- Space Name
  Surface,                                !- Outside Boundary Condition
  {e4288ee3-878b-4f33-a634-adcf3659c0a5}, !- Outside Boundary Condition Object
  NoSun,                                  !- Sun Exposure
  NoWind,                                 !- Wind Exposure
  ,                                       !- View Factor to Ground
  ,                                       !- Number of Vertices
  0, 0, 4,                                !- X,Y,Z Vertex 1 {m}
  0, 0, 0,                                !- X,Y,Z Vertex 2 {m}
  94, 0, 0,                               !- X,Y,Z Vertex 3 {m}
  94, 0, 4;                               !- X,Y,Z Vertex 4 {m}

OS:Surface,
  {9d98df27-6850-4159-a5bd-e4f77cf803f1}, !- Handle
  Surface 11,                             !- Name
  Wall,                                   !- Surface Type
  ,                                       !- Construction Name
  {aa6a6aca-f4e1-4fb5-b0b3-62a2e6ae84d9}, !- Space Name
  Surface,                                !- Outside Boundary Condition
  {087a6ca7-5004-46ee-9a9c-d7b37be110b6}, !- Outside Boundary Condition Object
  NoSun,                                  !- Sun Exposure
  NoWind,                                 !- Wind Exposure
  ,                                       !- View Factor to Ground
  ,                                       !- Number of Vertices
  -3, 3, 4,                               !- X,Y,Z Vertex 1 {m}
  -3, 3, 0,                               !- X,Y,Z Vertex 2 {m}
  0, 0, 0,                                !- X,Y,Z Vertex 3 {m}
  0, 0, 4;                                !- X,Y,Z Vertex 4 {m}

OS:Surface,
  {640ecd61-8fc7-4d46-9aaa-8a0674e04b1e}, !- Handle
  Surface 12,                             !- Name
  RoofCeiling,                            !- Surface Type
  ,                                       !- Construction Name
  {aa6a6aca-f4e1-4fb5-b0b3-62a2e6ae84d9}, !- Space Name
  Surface,                                !- Outside Boundary Condition
  {837efd29-2f21-4334-afb7-05aa826d130d}, !- Outside Boundary Condition Object
  NoSun,                                  !- Sun Exposure
  NoWind,                                 !- Wind Exposure
  ,                                       !- View Factor to Ground
  ,                                       !- Number of Vertices
  0, 0, 4,                                !- X,Y,Z Vertex 1 {m}
  94, 0, 4,                               !- X,Y,Z Vertex 2 {m}
  97, 3, 4,                               !- X,Y,Z Vertex 3 {m}
  -3, 3, 4;                               !- X,Y,Z Vertex 4 {m}

OS:Space,
  {f7248391-e908-4d72-b40c-e040428b2c65}, !- Handle
  Story 1 East Perimeter Space,           !- Name
  ,                                       !- Space Type Name
  ,                                       !- Default Construction Set Name
  ,                                       !- Default Schedule Set Name
  -0,                                     !- Direction of Relative North {deg}
  97,                                     !- X Origin {m}
  3,                                      !- Y Origin {m}
  0,                                      !- Z Origin {m}
  {0d175a10-003c-4a4e-8c06-05dc84228edf}, !- Building Story Name
  {179a2852-8533-4336-87da-a253c53c3ee3}; !- Thermal Zone Name

OS:Surface,
  {6dcf3771-7d53-4537-8079-206e7e389b64}, !- Handle
  Surface 13,                             !- Name
  Floor,                                  !- Surface Type
  {c5f29c50-9f50-48ac-b7e7-6a1966bbe1c7}, !- Construction Name
  {f7248391-e908-4d72-b40c-e040428b2c65}, !- Space Name
  Foundation,                             !- Outside Boundary Condition
  {c6b912fe-083f-4195-baca-04309cb2631b}, !- Outside Boundary Condition Object
  NoSun,                                  !- Sun Exposure
  NoWind,                                 !- Wind Exposure
  ,                                       !- View Factor to Ground
  ,                                       !- Number of Vertices
  3, 47, 0,                               !- X,Y,Z Vertex 1 {m}
  3, -3, 0,                               !- X,Y,Z Vertex 2 {m}
  0, 0, 0,                                !- X,Y,Z Vertex 3 {m}
  0, 44, 0;                               !- X,Y,Z Vertex 4 {m}

OS:Surface,
  {7799411d-26bd-4b67-b02f-69107d940931}, !- Handle
  Surface 14,                             !- Name
  Wall,                                   !- Surface Type
  ,                                       !- Construction Name
  {f7248391-e908-4d72-b40c-e040428b2c65}, !- Space Name
  Outdoors,                               !- Outside Boundary Condition
  ,                                       !- Outside Boundary Condition Object
  SunExposed,                             !- Sun Exposure
  WindExposed,                            !- Wind Exposure
  ,                                       !- View Factor to Ground
  ,                                       !- Number of Vertices
  3, -3, 4,                               !- X,Y,Z Vertex 1 {m}
  3, -3, 0,                               !- X,Y,Z Vertex 2 {m}
  3, 47, 0,                               !- X,Y,Z Vertex 3 {m}
  3, 47, 4;                               !- X,Y,Z Vertex 4 {m}

OS:Surface,
  {bbd1d070-1d4a-4ba2-bf0b-68a9cb5b311e}, !- Handle
  Surface 15,                             !- Name
  Wall,                                   !- Surface Type
  ,                                       !- Construction Name
  {f7248391-e908-4d72-b40c-e040428b2c65}, !- Space Name
  Surface,                                !- Outside Boundary Condition
  {4989bb71-76cf-48cc-a496-624144a78e91}, !- Outside Boundary Condition Object
  NoSun,                                  !- Sun Exposure
  NoWind,                                 !- Wind Exposure
  ,                                       !- View Factor to Ground
  ,                                       !- Number of Vertices
  0, 0, 4,                                !- X,Y,Z Vertex 1 {m}
  0, 0, 0,                                !- X,Y,Z Vertex 2 {m}
  3, -3, 0,                               !- X,Y,Z Vertex 3 {m}
  3, -3, 4;                               !- X,Y,Z Vertex 4 {m}

OS:Surface,
  {a1cfd974-eef8-4366-aae4-607c0cd6cf7b}, !- Handle
  Surface 16,                             !- Name
  Wall,                                   !- Surface Type
  ,                                       !- Construction Name
  {f7248391-e908-4d72-b40c-e040428b2c65}, !- Space Name
  Surface,                                !- Outside Boundary Condition
  {cdad75f6-b261-4d7f-ad29-4e98eb0edaf9}, !- Outside Boundary Condition Object
  NoSun,                                  !- Sun Exposure
  NoWind,                                 !- Wind Exposure
  ,                                       !- View Factor to Ground
  ,                                       !- Number of Vertices
  0, 44, 4,                               !- X,Y,Z Vertex 1 {m}
  0, 44, 0,                               !- X,Y,Z Vertex 2 {m}
  0, 0, 0,                                !- X,Y,Z Vertex 3 {m}
  0, 0, 4;                                !- X,Y,Z Vertex 4 {m}

OS:Surface,
  {031ab4fd-e284-400f-950c-4d013b57c82f}, !- Handle
  Surface 17,                             !- Name
  Wall,                                   !- Surface Type
  ,                                       !- Construction Name
  {f7248391-e908-4d72-b40c-e040428b2c65}, !- Space Name
  Surface,                                !- Outside Boundary Condition
  {85b52ab4-cf5d-40c6-8ea6-a043e6af5f58}, !- Outside Boundary Condition Object
  NoSun,                                  !- Sun Exposure
  NoWind,                                 !- Wind Exposure
  ,                                       !- View Factor to Ground
  ,                                       !- Number of Vertices
  3, 47, 4,                               !- X,Y,Z Vertex 1 {m}
  3, 47, 0,                               !- X,Y,Z Vertex 2 {m}
  0, 44, 0,                               !- X,Y,Z Vertex 3 {m}
  0, 44, 4;                               !- X,Y,Z Vertex 4 {m}

OS:Surface,
  {a5a52441-55cb-401a-bf8f-5f3b2802a5ce}, !- Handle
  Surface 18,                             !- Name
  RoofCeiling,                            !- Surface Type
  ,                                       !- Construction Name
  {f7248391-e908-4d72-b40c-e040428b2c65}, !- Space Name
  Surface,                                !- Outside Boundary Condition
  {29ca9c1c-0715-4c79-a5fe-7a3b4c2fd10b}, !- Outside Boundary Condition Object
  NoSun,                                  !- Sun Exposure
  NoWind,                                 !- Wind Exposure
  ,                                       !- View Factor to Ground
  ,                                       !- Number of Vertices
  0, 44, 4,                               !- X,Y,Z Vertex 1 {m}
  0, 0, 4,                                !- X,Y,Z Vertex 2 {m}
  3, -3, 4,                               !- X,Y,Z Vertex 3 {m}
  3, 47, 4;                               !- X,Y,Z Vertex 4 {m}

OS:Space,
  {547166df-1841-4b79-914c-84c967cfc53e}, !- Handle
  Story 1 South Perimeter Space,          !- Name
  ,                                       !- Space Type Name
  ,                                       !- Default Construction Set Name
  ,                                       !- Default Schedule Set Name
  -0,                                     !- Direction of Relative North {deg}
  0,                                      !- X Origin {m}
  0,                                      !- Y Origin {m}
  0,                                      !- Z Origin {m}
  {0d175a10-003c-4a4e-8c06-05dc84228edf}, !- Building Story Name
  {9e146aad-bc20-4808-96f1-7117e46a3f57}; !- Thermal Zone Name

OS:Surface,
  {1ecc4402-72b0-4f7c-b473-34610a1c33ae}, !- Handle
  Surface 19,                             !- Name
  Floor,                                  !- Surface Type
  {c5f29c50-9f50-48ac-b7e7-6a1966bbe1c7}, !- Construction Name
  {547166df-1841-4b79-914c-84c967cfc53e}, !- Space Name
  Foundation,                             !- Outside Boundary Condition
  {c6b912fe-083f-4195-baca-04309cb2631b}, !- Outside Boundary Condition Object
  NoSun,                                  !- Sun Exposure
  NoWind,                                 !- Wind Exposure
  ,                                       !- View Factor to Ground
  ,                                       !- Number of Vertices
  100, 0, 0,                              !- X,Y,Z Vertex 1 {m}
  0, 0, 0,                                !- X,Y,Z Vertex 2 {m}
  3, 3, 0,                                !- X,Y,Z Vertex 3 {m}
  97, 3, 0;                               !- X,Y,Z Vertex 4 {m}

OS:Surface,
  {50817632-6204-4981-96c5-c115fecfd290}, !- Handle
  Surface 20,                             !- Name
  Wall,                                   !- Surface Type
  ,                                       !- Construction Name
  {547166df-1841-4b79-914c-84c967cfc53e}, !- Space Name
  Outdoors,                               !- Outside Boundary Condition
  ,                                       !- Outside Boundary Condition Object
  SunExposed,                             !- Sun Exposure
  WindExposed,                            !- Wind Exposure
  ,                                       !- View Factor to Ground
  ,                                       !- Number of Vertices
  0, 0, 4,                                !- X,Y,Z Vertex 1 {m}
  0, 0, 0,                                !- X,Y,Z Vertex 2 {m}
  100, 0, 0,                              !- X,Y,Z Vertex 3 {m}
  100, 0, 4;                              !- X,Y,Z Vertex 4 {m}

OS:Surface,
  {58aa4fd2-306e-45bc-82cb-675164bea217}, !- Handle
  Surface 21,                             !- Name
  Wall,                                   !- Surface Type
  ,                                       !- Construction Name
  {547166df-1841-4b79-914c-84c967cfc53e}, !- Space Name
  Surface,                                !- Outside Boundary Condition
  {ca13a88d-ec98-428b-bbec-8ff5e651e85e}, !- Outside Boundary Condition Object
  NoSun,                                  !- Sun Exposure
  NoWind,                                 !- Wind Exposure
  ,                                       !- View Factor to Ground
  ,                                       !- Number of Vertices
  3, 3, 4,                                !- X,Y,Z Vertex 1 {m}
  3, 3, 0,                                !- X,Y,Z Vertex 2 {m}
  0, 0, 0,                                !- X,Y,Z Vertex 3 {m}
  0, 0, 4;                                !- X,Y,Z Vertex 4 {m}

OS:Surface,
  {61aa8e20-a8e9-4605-90c3-03fe17105578}, !- Handle
  Surface 22,                             !- Name
  Wall,                                   !- Surface Type
  ,                                       !- Construction Name
  {547166df-1841-4b79-914c-84c967cfc53e}, !- Space Name
  Surface,                                !- Outside Boundary Condition
  {5576bed8-2127-46f2-bc02-0f8a9cbd491f}, !- Outside Boundary Condition Object
  NoSun,                                  !- Sun Exposure
  NoWind,                                 !- Wind Exposure
  ,                                       !- View Factor to Ground
  ,                                       !- Number of Vertices
  97, 3, 4,                               !- X,Y,Z Vertex 1 {m}
  97, 3, 0,                               !- X,Y,Z Vertex 2 {m}
  3, 3, 0,                                !- X,Y,Z Vertex 3 {m}
  3, 3, 4;                                !- X,Y,Z Vertex 4 {m}

OS:Surface,
  {4989bb71-76cf-48cc-a496-624144a78e91}, !- Handle
  Surface 23,                             !- Name
  Wall,                                   !- Surface Type
  ,                                       !- Construction Name
  {547166df-1841-4b79-914c-84c967cfc53e}, !- Space Name
  Surface,                                !- Outside Boundary Condition
  {bbd1d070-1d4a-4ba2-bf0b-68a9cb5b311e}, !- Outside Boundary Condition Object
  NoSun,                                  !- Sun Exposure
  NoWind,                                 !- Wind Exposure
  ,                                       !- View Factor to Ground
  ,                                       !- Number of Vertices
  100, 0, 4,                              !- X,Y,Z Vertex 1 {m}
  100, 0, 0,                              !- X,Y,Z Vertex 2 {m}
  97, 3, 0,                               !- X,Y,Z Vertex 3 {m}
  97, 3, 4;                               !- X,Y,Z Vertex 4 {m}

OS:Surface,
  {172f192e-2741-4a44-9ae1-f063fb4f6eb3}, !- Handle
  Surface 24,                             !- Name
  RoofCeiling,                            !- Surface Type
  ,                                       !- Construction Name
  {547166df-1841-4b79-914c-84c967cfc53e}, !- Space Name
  Surface,                                !- Outside Boundary Condition
  {95332b4c-9ed9-4b38-aa57-7a25aaf2b9ca}, !- Outside Boundary Condition Object
  NoSun,                                  !- Sun Exposure
  NoWind,                                 !- Wind Exposure
  ,                                       !- View Factor to Ground
  ,                                       !- Number of Vertices
  97, 3, 4,                               !- X,Y,Z Vertex 1 {m}
  3, 3, 4,                                !- X,Y,Z Vertex 2 {m}
  0, 0, 4,                                !- X,Y,Z Vertex 3 {m}
  100, 0, 4;                              !- X,Y,Z Vertex 4 {m}

OS:Space,
  {248d6d82-91bd-43fc-829c-8960bf787ad8}, !- Handle
  Story 1 Core Space,                     !- Name
  ,                                       !- Space Type Name
  ,                                       !- Default Construction Set Name
  ,                                       !- Default Schedule Set Name
  -0,                                     !- Direction of Relative North {deg}
  3,                                      !- X Origin {m}
  3,                                      !- Y Origin {m}
  0,                                      !- Z Origin {m}
  {0d175a10-003c-4a4e-8c06-05dc84228edf}, !- Building Story Name
  {26859180-c31d-49c2-9dfb-91ac80f05808}; !- Thermal Zone Name

OS:Surface,
  {10703313-21a4-44c9-a60a-c1d878f3432a}, !- Handle
  Surface 25,                             !- Name
  Floor,                                  !- Surface Type
  {c5f29c50-9f50-48ac-b7e7-6a1966bbe1c7}, !- Construction Name
  {248d6d82-91bd-43fc-829c-8960bf787ad8}, !- Space Name
  Foundation,                             !- Outside Boundary Condition
  {c6b912fe-083f-4195-baca-04309cb2631b}, !- Outside Boundary Condition Object
  NoSun,                                  !- Sun Exposure
  NoWind,                                 !- Wind Exposure
  ,                                       !- View Factor to Ground
  ,                                       !- Number of Vertices
  0, 0, 0,                                !- X,Y,Z Vertex 1 {m}
  0, 44, 0,                               !- X,Y,Z Vertex 2 {m}
  94, 44, 0,                              !- X,Y,Z Vertex 3 {m}
  94, 0, 0;                               !- X,Y,Z Vertex 4 {m}

OS:Surface,
  {4ffab8a4-b502-4dd8-9304-0be54114c8ef}, !- Handle
  Surface 26,                             !- Name
  Wall,                                   !- Surface Type
  ,                                       !- Construction Name
  {248d6d82-91bd-43fc-829c-8960bf787ad8}, !- Space Name
  Surface,                                !- Outside Boundary Condition
  {b8e8afba-41ab-478a-bfa0-6c37d68dbcda}, !- Outside Boundary Condition Object
  NoSun,                                  !- Sun Exposure
  NoWind,                                 !- Wind Exposure
  ,                                       !- View Factor to Ground
  ,                                       !- Number of Vertices
  0, 44, 4,                               !- X,Y,Z Vertex 1 {m}
  0, 44, 0,                               !- X,Y,Z Vertex 2 {m}
  0, 0, 0,                                !- X,Y,Z Vertex 3 {m}
  0, 0, 4;                                !- X,Y,Z Vertex 4 {m}

OS:Surface,
  {e4288ee3-878b-4f33-a634-adcf3659c0a5}, !- Handle
  Surface 27,                             !- Name
  Wall,                                   !- Surface Type
  ,                                       !- Construction Name
  {248d6d82-91bd-43fc-829c-8960bf787ad8}, !- Space Name
  Surface,                                !- Outside Boundary Condition
  {38bbbf0b-9da9-462e-b45c-11a6ade0f53b}, !- Outside Boundary Condition Object
  NoSun,                                  !- Sun Exposure
  NoWind,                                 !- Wind Exposure
  ,                                       !- View Factor to Ground
  ,                                       !- Number of Vertices
  94, 44, 4,                              !- X,Y,Z Vertex 1 {m}
  94, 44, 0,                              !- X,Y,Z Vertex 2 {m}
  0, 44, 0,                               !- X,Y,Z Vertex 3 {m}
  0, 44, 4;                               !- X,Y,Z Vertex 4 {m}

OS:Surface,
  {cdad75f6-b261-4d7f-ad29-4e98eb0edaf9}, !- Handle
  Surface 28,                             !- Name
  Wall,                                   !- Surface Type
  ,                                       !- Construction Name
  {248d6d82-91bd-43fc-829c-8960bf787ad8}, !- Space Name