
OS:Version,
  {ef2aaa3f-e10b-4419-9b3a-ee5fd6d31ec4}, !- Handle
  2.4.1;                                  !- Version Identifier

OS:BuildingStory,
  {5ca24c88-f461-4974-a4d2-ec15335b45af}, !- Handle
  Story 1,                                !- Name
  0,                                      !- Nominal Z Coordinate {m}
  4,                                      !- Nominal Floor to Floor Height {m}
  ,                                       !- Default Construction Set Name
  ,                                       !- Default Schedule Set Name
  ;                                       !- Group Rendering Name

OS:Space,
  {3cbaf211-dd04-4053-b8f5-4b917e2bb474}, !- Handle
  Story 1 West Perimeter Space,           !- Name
  ,                                       !- Space Type Name
  ,                                       !- Default Construction Set Name
  ,                                       !- Default Schedule Set Name
  -0,                                     !- Direction of Relative North {deg}
  0,                                      !- X Origin {m}
  0,                                      !- Y Origin {m}
  0,                                      !- Z Origin {m}
  {5ca24c88-f461-4974-a4d2-ec15335b45af}, !- Building Story Name
  {a9e28e7e-8b29-456a-86e3-d08739118bd0}; !- Thermal Zone Name

OS:Surface,
  {b3ed8c9c-6257-457e-b168-6adb1137b2b3}, !- Handle
  Surface 1,                              !- Name
  Floor,                                  !- Surface Type
  {caa31e99-cb9b-4590-9eb1-8593d80609a7}, !- Construction Name
  {3cbaf211-dd04-4053-b8f5-4b917e2bb474}, !- Space Name
  Foundation,                             !- Outside Boundary Condition
  {d90e9ef2-86c4-4d60-b4ed-e4ca560c290d}, !- Outside Boundary Condition Object
  NoSun,                                  !- Sun Exposure
  NoWind,                                 !- Wind Exposure
  ,                                       !- View Factor to Ground
  ,                                       !- Number of Vertices
  0, 0, 0,                                !- X,Y,Z Vertex 1 {m}
  0, 50, 0,                               !- X,Y,Z Vertex 2 {m}
  3, 47, 0,                               !- X,Y,Z Vertex 3 {m}
  3, 3, 0;                                !- X,Y,Z Vertex 4 {m}

OS:Surface,
  {41122a59-3b44-4290-9f66-99e732ba6f13}, !- Handle
  Surface 2,                              !- Name
  Wall,                                   !- Surface Type
  ,                                       !- Construction Name
  {3cbaf211-dd04-4053-b8f5-4b917e2bb474}, !- Space Name
  Outdoors,                               !- Outside Boundary Condition
  ,                                       !- Outside Boundary Condition Object
  SunExposed,                             !- Sun Exposure
  WindExposed,                            !- Wind Exposure
  ,                                       !- View Factor to Ground
  ,                                       !- Number of Vertices
  0, 50, 4,                               !- X,Y,Z Vertex 1 {m}
  0, 50, 0,                               !- X,Y,Z Vertex 2 {m}
  0, 0, 0,                                !- X,Y,Z Vertex 3 {m}
  0, 0, 4;                                !- X,Y,Z Vertex 4 {m}

OS:Surface,
  {a2ceef53-03d9-4b1b-a993-0ae7f83ac44f}, !- Handle
  Surface 3,                              !- Name
  Wall,                                   !- Surface Type
  ,                                       !- Construction Name
  {3cbaf211-dd04-4053-b8f5-4b917e2bb474}, !- Space Name
  Surface,                                !- Outside Boundary Condition
  {e1eafecc-ea64-4cf2-8e85-5374682c8d03}, !- Outside Boundary Condition Object
  NoSun,                                  !- Sun Exposure
  NoWind,                                 !- Wind Exposure
  ,                                       !- View Factor to Ground
  ,                                       !- Number of Vertices
  3, 47, 4,                               !- X,Y,Z Vertex 1 {m}
  3, 47, 0,                               !- X,Y,Z Vertex 2 {m}
  0, 50, 0,                               !- X,Y,Z Vertex 3 {m}
  0, 50, 4;                               !- X,Y,Z Vertex 4 {m}

OS:Surface,
  {f7cd1e04-d3ff-4b9c-b556-4b2aa53e1415}, !- Handle
  Surface 4,                              !- Name
  Wall,                                   !- Surface Type
  ,                                       !- Construction Name
  {3cbaf211-dd04-4053-b8f5-4b917e2bb474}, !- Space Name
  Surface,                                !- Outside Boundary Condition
  {e107bc56-5b40-4ab3-8348-0a54e1ce5dae}, !- Outside Boundary Condition Object
  NoSun,                                  !- Sun Exposure
  NoWind,                                 !- Wind Exposure
  ,                                       !- View Factor to Ground
  ,                                       !- Number of Vertices
  3, 3, 4,                                !- X,Y,Z Vertex 1 {m}
  3, 3, 0,                                !- X,Y,Z Vertex 2 {m}
  3, 47, 0,                               !- X,Y,Z Vertex 3 {m}
  3, 47, 4;                               !- X,Y,Z Vertex 4 {m}

OS:Surface,
  {ac98cbf5-6dbf-4187-bb81-7c1c787fe3a5}, !- Handle
  Surface 5,                              !- Name
  Wall,                                   !- Surface Type
  ,                                       !- Construction Name
  {3cbaf211-dd04-4053-b8f5-4b917e2bb474}, !- Space Name
  Surface,                                !- Outside Boundary Condition
  {699a80e0-c0dc-47d8-8ef3-e96d6c13d0f4}, !- Outside Boundary Condition Object
  NoSun,                                  !- Sun Exposure
  NoWind,                                 !- Wind Exposure
  ,                                       !- View Factor to Ground
  ,                                       !- Number of Vertices
  0, 0, 4,                                !- X,Y,Z Vertex 1 {m}
  0, 0, 0,                                !- X,Y,Z Vertex 2 {m}
  3, 3, 0,                                !- X,Y,Z Vertex 3 {m}
  3, 3, 4;                                !- X,Y,Z Vertex 4 {m}

OS:Surface,
  {f9fe4ceb-622b-454d-bf96-92f071ab9f11}, !- Handle
  Surface 6,                              !- Name
  RoofCeiling,                            !- Surface Type
  ,                                       !- Construction Name
  {3cbaf211-dd04-4053-b8f5-4b917e2bb474}, !- Space Name
  Surface,                                !- Outside Boundary Condition
  {c5a043db-f9a4-4116-ba99-a92d44e2f065}, !- Outside Boundary Condition Object
  NoSun,                                  !- Sun Exposure
  NoWind,                                 !- Wind Exposure
  ,                                       !- View Factor to Ground
  ,                                       !- Number of Vertices
  3, 3, 4,                                !- X,Y,Z Vertex 1 {m}
  3, 47, 4,                               !- X,Y,Z Vertex 2 {m}
  0, 50, 4,                               !- X,Y,Z Vertex 3 {m}
  0, 0, 4;                                !- X,Y,Z Vertex 4 {m}

OS:Space,
  {7085795a-458c-4477-9d5a-e07541b29a7d}, !- Handle
  Story 1 North Perimeter Space,          !- Name
  ,                                       !- Space Type Name
  ,                                       !- Default Construction Set Name
  ,                                       !- Default Schedule Set Name
  -0,                                     !- Direction of Relative North {deg}
  3,                                      !- X Origin {m}
  47,                                     !- Y Origin {m}
  0,                                      !- Z Origin {m}
  {5ca24c88-f461-4974-a4d2-ec15335b45af}, !- Building Story Name
  {230ed338-f021-4203-98a1-e86409794301}; !- Thermal Zone Name

OS:Surface,
  {c4fcd227-3104-461a-ad39-258688f48123}, !- Handle
  Surface 7,                              !- Name
  Floor,                                  !- Surface Type
  {caa31e99-cb9b-4590-9eb1-8593d80609a7}, !- Construction Name
  {7085795a-458c-4477-9d5a-e07541b29a7d}, !- Space Name
  Foundation,                             !- Outside Boundary Condition
  {d90e9ef2-86c4-4d60-b4ed-e4ca560c290d}, !- Outside Boundary Condition Object
  NoSun,                                  !- Sun Exposure
  NoWind,                                 !- Wind Exposure
  ,                                       !- View Factor to Ground
  ,                                       !- Number of Vertices
  -3, 3, 0,                               !- X,Y,Z Vertex 1 {m}
  97, 3, 0,                               !- X,Y,Z Vertex 2 {m}
  94, 0, 0,                               !- X,Y,Z Vertex 3 {m}
  0, 0, 0;                                !- X,Y,Z Vertex 4 {m}

OS:Surface,
  {67ef461e-1ce4-45af-8047-3391e1fe6be4}, !- Handle
  Surface 8,                              !- Name
  Wall,                                   !- Surface Type
  ,                                       !- Construction Name
  {7085795a-458c-4477-9d5a-e07541b29a7d}, !- Space Name
  Outdoors,                               !- Outside Boundary Condition
  ,                                       !- Outside Boundary Condition Object
  SunExposed,                             !- Sun Exposure
  WindExposed,                            !- Wind Exposure
  ,                                       !- View Factor to Ground
  ,                                       !- Number of Vertices
  97, 3, 4,                               !- X,Y,Z Vertex 1 {m}
  97, 3, 0,                               !- X,Y,Z Vertex 2 {m}
  -3, 3, 0,                               !- X,Y,Z Vertex 3 {m}
  -3, 3, 4;                               !- X,Y,Z Vertex 4 {m}

OS:Surface,
  {3ace014f-93e4-4ca1-a609-620364b25919}, !- Handle
  Surface 9,                              !- Name
  Wall,                                   !- Surface Type
  ,                                       !- Construction Name
  {7085795a-458c-4477-9d5a-e07541b29a7d}, !- Space Name
  Surface,                                !- Outside Boundary Condition
  {a454a15d-b38a-4474-bd39-568c9d64febc}, !- Outside Boundary Condition Object
  NoSun,                                  !- Sun Exposure
  NoWind,                                 !- Wind Exposure
  ,                                       !- View Factor to Ground
  ,                                       !- Number of Vertices
  94, 0, 4,                               !- X,Y,Z Vertex 1 {m}
  94, 0, 0,                               !- X,Y,Z Vertex 2 {m}
  97, 3, 0,                               !- X,Y,Z Vertex 3 {m}
  97, 3, 4;                               !- X,Y,Z Vertex 4 {m}

OS:Surface,
  {6880fc65-e7bb-44ed-aa9e-39c36a9ef355}, !- Handle
  Surface 10,                             !- Name
  Wall,                                   !- Surface Type
  ,                                       !- Construction Name
  {7085795a-458c-4477-9d5a-e07541b29a7d}, !- Space Name
  Surface,                                !- Outside Boundary Condition
  {64e0569c-4b50-45d5-81f9-cc4fe2eb1c11}, !- Outside Boundary Condition Object
  NoSun,                                  !- Sun Exposure
  NoWind,                                 !- Wind Exposure
  ,                                       !- View Factor to Ground
  ,                                       !- Number of Vertices
  0, 0, 4,                                !- X,Y,Z Vertex 1 {m}
  0, 0, 0,                                !- X,Y,Z Vertex 2 {m}
  94, 0, 0,                               !- X,Y,Z Vertex 3 {m}
  94, 0, 4;                               !- X,Y,Z Vertex 4 {m}

OS:Surface,
  {e1eafecc-ea64-4cf2-8e85-5374682c8d03}, !- Handle
  Surface 11,                             !- Name
  Wall,                                   !- Surface Type
  ,                                       !- Construction Name
  {7085795a-458c-4477-9d5a-e07541b29a7d}, !- Space Name
  Surface,                                !- Outside Boundary Condition
  {a2ceef53-03d9-4b1b-a993-0ae7f83ac44f}, !- Outside Boundary Condition Object
  NoSun,                                  !- Sun Exposure
  NoWind,                                 !- Wind Exposure
  ,                                       !- View Factor to Ground
  ,                                       !- Number of Vertices
  -3, 3, 4,                               !- X,Y,Z Vertex 1 {m}
  -3, 3, 0,                               !- X,Y,Z Vertex 2 {m}
  0, 0, 0,                                !- X,Y,Z Vertex 3 {m}
  0, 0, 4;                                !- X,Y,Z Vertex 4 {m}

OS:Surface,
  {68a62faa-1f4f-402b-80f8-941b74cc6fa7}, !- Handle
  Surface 12,                             !- Name
  RoofCeiling,                            !- Surface Type
  ,                                       !- Construction Name
  {7085795a-458c-4477-9d5a-e07541b29a7d}, !- Space Name
  Surface,                                !- Outside Boundary Condition
  {414e4730-a30c-44ef-a369-0b4eaaa6d573}, !- Outside Boundary Condition Object
  NoSun,                                  !- Sun Exposure
  NoWind,                                 !- Wind Exposure
  ,                                       !- View Factor to Ground
  ,                                       !- Number of Vertices
  0, 0, 4,                                !- X,Y,Z Vertex 1 {m}
  94, 0, 4,                               !- X,Y,Z Vertex 2 {m}
  97, 3, 4,                               !- X,Y,Z Vertex 3 {m}
  -3, 3, 4;                               !- X,Y,Z Vertex 4 {m}

OS:Space,
  {5ae785ad-77af-4f33-9b09-1b8c153ca8f6}, !- Handle
  Story 1 East Perimeter Space,           !- Name
  ,                                       !- Space Type Name
  ,                                       !- Default Construction Set Name
  ,                                       !- Default Schedule Set Name
  -0,                                     !- Direction of Relative North {deg}
  97,                                     !- X Origin {m}
  3,                                      !- Y Origin {m}
  0,                                      !- Z Origin {m}
  {5ca24c88-f461-4974-a4d2-ec15335b45af}, !- Building Story Name
  {b1698883-d3fe-474f-a520-98188859bf09}; !- Thermal Zone Name

OS:Surface,
  {9f3c43db-99eb-48dd-98d2-a4f9535c302a}, !- Handle
  Surface 13,                             !- Name
  Floor,                                  !- Surface Type
  {caa31e99-cb9b-4590-9eb1-8593d80609a7}, !- Construction Name
  {5ae785ad-77af-4f33-9b09-1b8c153ca8f6}, !- Space Name
  Foundation,                             !- Outside Boundary Condition
  {d90e9ef2-86c4-4d60-b4ed-e4ca560c290d}, !- Outside Boundary Condition Object
  NoSun,                                  !- Sun Exposure
  NoWind,                                 !- Wind Exposure
  ,                                       !- View Factor to Ground
  ,                                       !- Number of Vertices
  3, 47, 0,                               !- X,Y,Z Vertex 1 {m}
  3, -3, 0,                               !- X,Y,Z Vertex 2 {m}
  0, 0, 0,                                !- X,Y,Z Vertex 3 {m}
  0, 44, 0;                               !- X,Y,Z Vertex 4 {m}

OS:Surface,
  {e9135626-f213-4b45-944b-8195c7dd26e6}, !- Handle
  Surface 14,                             !- Name
  Wall,                                   !- Surface Type
  ,                                       !- Construction Name
  {5ae785ad-77af-4f33-9b09-1b8c153ca8f6}, !- Space Name
  Outdoors,                               !- Outside Boundary Condition
  ,                                       !- Outside Boundary Condition Object
  SunExposed,                             !- Sun Exposure
  WindExposed,                            !- Wind Exposure
  ,                                       !- View Factor to Ground
  ,                                       !- Number of Vertices
  3, -3, 4,                               !- X,Y,Z Vertex 1 {m}
  3, -3, 0,                               !- X,Y,Z Vertex 2 {m}
  3, 47, 0,                               !- X,Y,Z Vertex 3 {m}
  3, 47, 4;                               !- X,Y,Z Vertex 4 {m}

OS:Surface,
  {e14c4f38-072b-4972-b41c-e567db42dbb9}, !- Handle
  Surface 15,                             !- Name
  Wall,                                   !- Surface Type
  ,                                       !- Construction Name
  {5ae785ad-77af-4f33-9b09-1b8c153ca8f6}, !- Space Name
  Surface,                                !- Outside Boundary Condition
  {ee438b73-36b2-4084-90df-03f221d2490a}, !- Outside Boundary Condition Object
  NoSun,                                  !- Sun Exposure
  NoWind,                                 !- Wind Exposure
  ,                                       !- View Factor to Ground
  ,                                       !- Number of Vertices
  0, 0, 4,                                !- X,Y,Z Vertex 1 {m}
  0, 0, 0,                                !- X,Y,Z Vertex 2 {m}
  3, -3, 0,                               !- X,Y,Z Vertex 3 {m}
  3, -3, 4;                               !- X,Y,Z Vertex 4 {m}

OS:Surface,
  {44773c09-66ed-497b-9be4-8f14a4ec839b}, !- Handle
  Surface 16,                             !- Name
  Wall,                                   !- Surface Type
  ,                                       !- Construction Name
  {5ae785ad-77af-4f33-9b09-1b8c153ca8f6}, !- Space Name
  Surface,                                !- Outside Boundary Condition
  {436e1060-bb5d-4e95-84a1-390a041c5ee3}, !- Outside Boundary Condition Object
  NoSun,                                  !- Sun Exposure
  NoWind,                                 !- Wind Exposure
  ,                                       !- View Factor to Ground
  ,                                       !- Number of Vertices
  0, 44, 4,                               !- X,Y,Z Vertex 1 {m}
  0, 44, 0,                               !- X,Y,Z Vertex 2 {m}
  0, 0, 0,                                !- X,Y,Z Vertex 3 {m}
  0, 0, 4;                                !- X,Y,Z Vertex 4 {m}

OS:Surface,
  {a454a15d-b38a-4474-bd39-568c9d64febc}, !- Handle
  Surface 17,                             !- Name
  Wall,                                   !- Surface Type
  ,                                       !- Construction Name
  {5ae785ad-77af-4f33-9b09-1b8c153ca8f6}, !- Space Name
  Surface,                                !- Outside Boundary Condition
  {3ace014f-93e4-4ca1-a609-620364b25919}, !- Outside Boundary Condition Object
  NoSun,                                  !- Sun Exposure
  NoWind,                                 !- Wind Exposure
  ,                                       !- View Factor to Ground
  ,                                       !- Number of Vertices
  3, 47, 4,                               !- X,Y,Z Vertex 1 {m}
  3, 47, 0,                               !- X,Y,Z Vertex 2 {m}
  0, 44, 0,                               !- X,Y,Z Vertex 3 {m}
  0, 44, 4;                               !- X,Y,Z Vertex 4 {m}

OS:Surface,
  {14ee5656-dd31-40e4-a44e-3df88d8893f7}, !- Handle
  Surface 18,                             !- Name
  RoofCeiling,                            !- Surface Type
  ,                                       !- Construction Name
  {5ae785ad-77af-4f33-9b09-1b8c153ca8f6}, !- Space Name
  Surface,                                !- Outside Boundary Condition
  {86707972-3481-427e-b9de-348381721552}, !- Outside Boundary Condition Object
  NoSun,                                  !- Sun Exposure
  NoWind,                                 !- Wind Exposure
  ,                                       !- View Factor to Ground
  ,                                       !- Number of Vertices
  0, 44, 4,                               !- X,Y,Z Vertex 1 {m}
  0, 0, 4,                                !- X,Y,Z Vertex 2 {m}
  3, -3, 4,                               !- X,Y,Z Vertex 3 {m}
  3, 47, 4;                               !- X,Y,Z Vertex 4 {m}

OS:Space,
  {6252c290-6d5f-435b-a4d0-5a6ad562fc1f}, !- Handle
  Story 1 South Perimeter Space,          !- Name
  ,                                       !- Space Type Name
  ,                                       !- Default Construction Set Name
  ,                                       !- Default Schedule Set Name
  -0,                                     !- Direction of Relative North {deg}
  0,                                      !- X Origin {m}
  0,                                      !- Y Origin {m}
  0,                                      !- Z Origin {m}
  {5ca24c88-f461-4974-a4d2-ec15335b45af}, !- Building Story Name
  {fa51af08-4662-4874-865b-46a9a5b95864}; !- Thermal Zone Name

OS:Surface,
  {ab611482-841c-449f-baaa-ac0558c703fd}, !- Handle
  Surface 19,                             !- Name
  Floor,                                  !- Surface Type
  {caa31e99-cb9b-4590-9eb1-8593d80609a7}, !- Construction Name
  {6252c290-6d5f-435b-a4d0-5a6ad562fc1f}, !- Space Name
  Foundation,                             !- Outside Boundary Condition
  {d90e9ef2-86c4-4d60-b4ed-e4ca560c290d}, !- Outside Boundary Condition Object
  NoSun,                                  !- Sun Exposure
  NoWind,                                 !- Wind Exposure
  ,                                       !- View Factor to Ground
  ,                                       !- Number of Vertices
  100, 0, 0,                              !- X,Y,Z Vertex 1 {m}
  0, 0, 0,                                !- X,Y,Z Vertex 2 {m}
  3, 3, 0,                                !- X,Y,Z Vertex 3 {m}
  97, 3, 0;                               !- X,Y,Z Vertex 4 {m}

OS:Surface,
  {41db0255-2092-4504-a5a7-336e3d8b4724}, !- Handle
  Surface 20,                             !- Name
  Wall,                                   !- Surface Type
  ,                                       !- Construction Name
  {6252c290-6d5f-435b-a4d0-5a6ad562fc1f}, !- Space Name
  Outdoors,                               !- Outside Boundary Condition
  ,                                       !- Outside Boundary Condition Object
  SunExposed,                             !- Sun Exposure
  WindExposed,                            !- Wind Exposure
  ,                                       !- View Factor to Ground
  ,                                       !- Number of Vertices
  0, 0, 4,                                !- X,Y,Z Vertex 1 {m}
  0, 0, 0,                                !- X,Y,Z Vertex 2 {m}
  100, 0, 0,                              !- X,Y,Z Vertex 3 {m}
  100, 0, 4;                              !- X,Y,Z Vertex 4 {m}

OS:Surface,
  {699a80e0-c0dc-47d8-8ef3-e96d6c13d0f4}, !- Handle
  Surface 21,                             !- Name
  Wall,                                   !- Surface Type
  ,                                       !- Construction Name
  {6252c290-6d5f-435b-a4d0-5a6ad562fc1f}, !- Space Name
  Surface,                                !- Outside Boundary Condition
  {ac98cbf5-6dbf-4187-bb81-7c1c787fe3a5}, !- Outside Boundary Condition Object
  NoSun,                                  !- Sun Exposure
  NoWind,                                 !- Wind Exposure
  ,                                       !- View Factor to Ground
  ,                                       !- Number of Vertices
  3, 3, 4,                                !- X,Y,Z Vertex 1 {m}
  3, 3, 0,                                !- X,Y,Z Vertex 2 {m}
  0, 0, 0,                                !- X,Y,Z Vertex 3 {m}
  0, 0, 4;                                !- X,Y,Z Vertex 4 {m}

OS:Surface,
  {e32621a5-9e49-4119-af7a-c104a72914c5}, !- Handle
  Surface 22,                             !- Name
  Wall,                                   !- Surface Type
  ,                                       !- Construction Name
  {6252c290-6d5f-435b-a4d0-5a6ad562fc1f}, !- Space Name
  Surface,                                !- Outside Boundary Condition
  {5947e998-409e-47ac-9940-bdc3641b5206}, !- Outside Boundary Condition Object
  NoSun,                                  !- Sun Exposure
  NoWind,                                 !- Wind Exposure
  ,                                       !- View Factor to Ground
  ,                                       !- Number of Vertices
  97, 3, 4,                               !- X,Y,Z Vertex 1 {m}
  97, 3, 0,                               !- X,Y,Z Vertex 2 {m}
  3, 3, 0,                                !- X,Y,Z Vertex 3 {m}
  3, 3, 4;                                !- X,Y,Z Vertex 4 {m}

OS:Surface,
  {ee438b73-36b2-4084-90df-03f221d2490a}, !- Handle
  Surface 23,                             !- Name
  Wall,                                   !- Surface Type
  ,                                       !- Construction Name
  {6252c290-6d5f-435b-a4d0-5a6ad562fc1f}, !- Space Name
  Surface,                                !- Outside Boundary Condition
  {e14c4f38-072b-4972-b41c-e567db42dbb9}, !- Outside Boundary Condition Object
  NoSun,                                  !- Sun Exposure
  NoWind,                                 !- Wind Exposure
  ,                                       !- View Factor to Ground
  ,                                       !- Number of Vertices
  100, 0, 4,                              !- X,Y,Z Vertex 1 {m}
  100, 0, 0,                              !- X,Y,Z Vertex 2 {m}
  97, 3, 0,                               !- X,Y,Z Vertex 3 {m}
  97, 3, 4;                               !- X,Y,Z Vertex 4 {m}

OS:Surface,
  {d724380c-8dab-4b8c-941b-9fee3a415643}, !- Handle
  Surface 24,                             !- Name
  RoofCeiling,                            !- Surface Type
  ,                                       !- Construction Name
  {6252c290-6d5f-435b-a4d0-5a6ad562fc1f}, !- Space Name
  Surface,                                !- Outside Boundary Condition
  {84963c8a-ee18-4131-858c-92e667fde1e3}, !- Outside Boundary Condition Object
  NoSun,                                  !- Sun Exposure
  NoWind,                                 !- Wind Exposure
  ,                                       !- View Factor to Ground
  ,                                       !- Number of Vertices
  97, 3, 4,                               !- X,Y,Z Vertex 1 {m}
  3, 3, 4,                                !- X,Y,Z Vertex 2 {m}
  0, 0, 4,                                !- X,Y,Z Vertex 3 {m}
  100, 0, 4;                              !- X,Y,Z Vertex 4 {m}

OS:Space,
  {b83c98b4-cc92-4cff-ba9d-fe81a4c070b2}, !- Handle
  Story 1 Core Space,                     !- Name
  ,                                       !- Space Type Name
  ,                                       !- Default Construction Set Name
  ,                                       !- Default Schedule Set Name
  -0,                                     !- Direction of Relative North {deg}
  3,                                      !- X Origin {m}
  3,                                      !- Y Origin {m}
  0,                                      !- Z Origin {m}
  {5ca24c88-f461-4974-a4d2-ec15335b45af}, !- Building Story Name
  {6af0621e-4fe0-47cc-b2d2-262109155804}; !- Thermal Zone Name

OS:Surface,
  {4722a658-a034-47c5-a7e6-d7e799e0463e}, !- Handle
  Surface 25,                             !- Name
  Floor,                                  !- Surface Type
  {caa31e99-cb9b-4590-9eb1-8593d80609a7}, !- Construction Name
  {b83c98b4-cc92-4cff-ba9d-fe81a4c070b2}, !- Space Name
  Foundation,                             !- Outside Boundary Condition
  {d90e9ef2-86c4-4d60-b4ed-e4ca560c290d}, !- Outside Boundary Condition Object
  NoSun,                                  !- Sun Exposure
  NoWind,                                 !- Wind Exposure
  ,                                       !- View Factor to Ground
  ,                                       !- Number of Vertices
  0, 0, 0,                                !- X,Y,Z Vertex 1 {m}
  0, 44, 0,                               !- X,Y,Z Vertex 2 {m}
  94, 44, 0,                              !- X,Y,Z Vertex 3 {m}
  94, 0, 0;                               !- X,Y,Z Vertex 4 {m}

OS:Surface,
  {e107bc56-5b40-4ab3-8348-0a54e1ce5dae}, !- Handle
  Surface 26,                             !- Name
  Wall,                                   !- Surface Type
  ,                                       !- Construction Name
  {b83c98b4-cc92-4cff-ba9d-fe81a4c070b2}, !- Space Name
  Surface,                                !- Outside Boundary Condition
  {f7cd1e04-d3ff-4b9c-b556-4b2aa53e1415}, !- Outside Boundary Condition Object
  NoSun,                                  !- Sun Exposure
  NoWind,                                 !- Wind Exposure
  ,                                       !- View Factor to Ground
  ,                                       !- Number of Vertices
  0, 44, 4,                               !- X,Y,Z Vertex 1 {m}
  0, 44, 0,                               !- X,Y,Z Vertex 2 {m}
  0, 0, 0,                                !- X,Y,Z Vertex 3 {m}
  0, 0, 4;                                !- X,Y,Z Vertex 4 {m}

OS:Surface,
  {64e0569c-4b50-45d5-81f9-cc4fe2eb1c11}, !- Handle
  Surface 27,                             !- Name
  Wall,                                   !- Surface Type
  ,                                       !- Construction Name
  {b83c98b4-cc92-4cff-ba9d-fe81a4c070b2}, !- Space Name
  Surface,                                !- Outside Boundary Condition
  {6880fc65-e7bb-44ed-aa9e-39c36a9ef355}, !- Outside Boundary Condition Object
  NoSun,                                  !- Sun Exposure
  NoWind,                                 !- Wind Exposure
  ,                                       !- View Factor to Ground
  ,                                       !- Number of Vertices
  94, 44, 4,                              !- X,Y,Z Vertex 1 {m}
  94, 44, 0,                              !- X,Y,Z Vertex 2 {m}
  0, 44, 0,                               !- X,Y,Z Vertex 3 {m}
  0, 44, 4;                               !- X,Y,Z Vertex 4 {m}

OS:Surface,
  {436e1060-bb5d-4e95-84a1-390a041c5ee3}, !- Handle
  Surface 28,                             !- Name
  Wall,                                   !- Surface Type
  ,                                       !- Construction Name
  {b83c98b4-cc92-4cff-ba9d-fe81a4c070b2}, !- Space Name