
OS:Version,
  {b392ebc9-bf41-490f-8dbe-b76a2e4f53c2}, !- Handle
  2.8.1;                                  !- Version Identifier

OS:BuildingStory,
  {85059733-c997-451f-bd85-f024ee9a4742}, !- Handle
  Story 1,                                !- Name
  0,                                      !- Nominal Z Coordinate {m}
  4,                                      !- Nominal Floor to Floor Height {m}
  ,                                       !- Default Construction Set Name
  ,                                       !- Default Schedule Set Name
  ;                                       !- Group Rendering Name

OS:Space,
  {30574396-a8e7-445c-b76a-eb2a0d2f5359}, !- Handle
  Story 1 West Perimeter Space,           !- Name
  ,                                       !- Space Type Name
  ,                                       !- Default Construction Set Name
  ,                                       !- Default Schedule Set Name
  -0,                                     !- Direction of Relative North {deg}
  0,                                      !- X Origin {m}
  0,                                      !- Y Origin {m}
  0,                                      !- Z Origin {m}
  {85059733-c997-451f-bd85-f024ee9a4742}, !- Building Story Name
  {17e7dc60-21df-44de-b84e-29482179216f}; !- Thermal Zone Name

OS:Surface,
  {d2ac815d-bde3-48c3-b0e9-41873498cc30}, !- Handle
  Surface 1,                              !- Name
  Floor,                                  !- Surface Type
  {99dac45f-c1b9-46a6-aa59-35cf35308810}, !- Construction Name
  {30574396-a8e7-445c-b76a-eb2a0d2f5359}, !- Space Name
  Foundation,                             !- Outside Boundary Condition
  {e3508a86-dfc3-422d-b217-159727b3d37e}, !- Outside Boundary Condition Object
  NoSun,                                  !- Sun Exposure
  NoWind,                                 !- Wind Exposure
  ,                                       !- View Factor to Ground
  ,                                       !- Number of Vertices
  0, 0, 0,                                !- X,Y,Z Vertex 1 {m}
  0, 50, 0,                               !- X,Y,Z Vertex 2 {m}
  3, 47, 0,                               !- X,Y,Z Vertex 3 {m}
  3, 3, 0;                                !- X,Y,Z Vertex 4 {m}

OS:Surface,
  {fc1c4ab3-3da6-4a1c-97c1-6ca7b0191df6}, !- Handle
  Surface 2,                              !- Name
  Wall,                                   !- Surface Type
  ,                                       !- Construction Name
  {30574396-a8e7-445c-b76a-eb2a0d2f5359}, !- Space Name
  Outdoors,                               !- Outside Boundary Condition
  ,                                       !- Outside Boundary Condition Object
  SunExposed,                             !- Sun Exposure
  WindExposed,                            !- Wind Exposure
  ,                                       !- View Factor to Ground
  ,                                       !- Number of Vertices
  0, 50, 4,                               !- X,Y,Z Vertex 1 {m}
  0, 50, 0,                               !- X,Y,Z Vertex 2 {m}
  0, 0, 0,                                !- X,Y,Z Vertex 3 {m}
  0, 0, 4;                                !- X,Y,Z Vertex 4 {m}

OS:Surface,
  {14804450-f571-4894-9b09-c701a94c3ebe}, !- Handle
  Surface 3,                              !- Name
  Wall,                                   !- Surface Type
  ,                                       !- Construction Name
  {30574396-a8e7-445c-b76a-eb2a0d2f5359}, !- Space Name
  Surface,                                !- Outside Boundary Condition
  {c6bba311-6e95-4a43-9384-4fe8b2cb9441}, !- Outside Boundary Condition Object
  NoSun,                                  !- Sun Exposure
  NoWind,                                 !- Wind Exposure
  ,                                       !- View Factor to Ground
  ,                                       !- Number of Vertices
  3, 47, 4,                               !- X,Y,Z Vertex 1 {m}
  3, 47, 0,                               !- X,Y,Z Vertex 2 {m}
  0, 50, 0,                               !- X,Y,Z Vertex 3 {m}
  0, 50, 4;                               !- X,Y,Z Vertex 4 {m}

OS:Surface,
  {653ec72c-3060-4882-8c10-ef1c9cf4d062}, !- Handle
  Surface 4,                              !- Name
  Wall,                                   !- Surface Type
  ,                                       !- Construction Name
  {30574396-a8e7-445c-b76a-eb2a0d2f5359}, !- Space Name
  Surface,                                !- Outside Boundary Condition
  {f76d81c6-4981-4b5d-bb63-78fc5895db5c}, !- Outside Boundary Condition Object
  NoSun,                                  !- Sun Exposure
  NoWind,                                 !- Wind Exposure
  ,                                       !- View Factor to Ground
  ,                                       !- Number of Vertices
  3, 3, 4,                                !- X,Y,Z Vertex 1 {m}
  3, 3, 0,                                !- X,Y,Z Vertex 2 {m}
  3, 47, 0,                               !- X,Y,Z Vertex 3 {m}
  3, 47, 4;                               !- X,Y,Z Vertex 4 {m}

OS:Surface,
  {a000439b-0c07-4bde-ac0d-da5d16135b88}, !- Handle
  Surface 5,                              !- Name
  Wall,                                   !- Surface Type
  ,                                       !- Construction Name
  {30574396-a8e7-445c-b76a-eb2a0d2f5359}, !- Space Name
  Surface,                                !- Outside Boundary Condition
  {82bd74a6-06af-4d3f-9846-c737c3f3f7a1}, !- Outside Boundary Condition Object
  NoSun,                                  !- Sun Exposure
  NoWind,                                 !- Wind Exposure
  ,                                       !- View Factor to Ground
  ,                                       !- Number of Vertices
  0, 0, 4,                                !- X,Y,Z Vertex 1 {m}
  0, 0, 0,                                !- X,Y,Z Vertex 2 {m}
  3, 3, 0,                                !- X,Y,Z Vertex 3 {m}
  3, 3, 4;                                !- X,Y,Z Vertex 4 {m}

OS:Surface,
  {8a5a3809-a63a-4206-ba15-bfbeb2813ee9}, !- Handle
  Surface 6,                              !- Name
  RoofCeiling,                            !- Surface Type
  ,                                       !- Construction Name
  {30574396-a8e7-445c-b76a-eb2a0d2f5359}, !- Space Name
  Surface,                                !- Outside Boundary Condition
  {a91a2455-2b24-4d56-9004-2fd60cdabcbe}, !- Outside Boundary Condition Object
  NoSun,                                  !- Sun Exposure
  NoWind,                                 !- Wind Exposure
  ,                                       !- View Factor to Ground
  ,                                       !- Number of Vertices
  3, 3, 4,                                !- X,Y,Z Vertex 1 {m}
  3, 47, 4,                               !- X,Y,Z Vertex 2 {m}
  0, 50, 4,                               !- X,Y,Z Vertex 3 {m}
  0, 0, 4;                                !- X,Y,Z Vertex 4 {m}

OS:Space,
  {4b18d794-737f-4d12-8886-0022d0a7ba71}, !- Handle
  Story 1 North Perimeter Space,          !- Name
  ,                                       !- Space Type Name
  ,                                       !- Default Construction Set Name
  ,                                       !- Default Schedule Set Name
  -0,                                     !- Direction of Relative North {deg}
  3,                                      !- X Origin {m}
  47,                                     !- Y Origin {m}
  0,                                      !- Z Origin {m}
  {85059733-c997-451f-bd85-f024ee9a4742}, !- Building Story Name
  {34bf8301-f874-4e29-a64e-6ca6871a5b9e}; !- Thermal Zone Name

OS:Surface,
  {581908cc-9528-4fc0-b7f6-5e68a138b187}, !- Handle
  Surface 7,                              !- Name
  Floor,                                  !- Surface Type
  {99dac45f-c1b9-46a6-aa59-35cf35308810}, !- Construction Name
  {4b18d794-737f-4d12-8886-0022d0a7ba71}, !- Space Name
  Foundation,                             !- Outside Boundary Condition
  {e3508a86-dfc3-422d-b217-159727b3d37e}, !- Outside Boundary Condition Object
  NoSun,                                  !- Sun Exposure
  NoWind,                                 !- Wind Exposure
  ,                                       !- View Factor to Ground
  ,                                       !- Number of Vertices
  -3, 3, 0,                               !- X,Y,Z Vertex 1 {m}
  97, 3, 0,                               !- X,Y,Z Vertex 2 {m}
  94, 0, 0,                               !- X,Y,Z Vertex 3 {m}
  0, 0, 0;                                !- X,Y,Z Vertex 4 {m}

OS:Surface,
  {c9a68968-42ec-4e60-b2ab-b22f5a495b9b}, !- Handle
  Surface 8,                              !- Name
  Wall,                                   !- Surface Type
  ,                                       !- Construction Name
  {4b18d794-737f-4d12-8886-0022d0a7ba71}, !- Space Name
  Outdoors,                               !- Outside Boundary Condition
  ,                                       !- Outside Boundary Condition Object
  SunExposed,                             !- Sun Exposure
  WindExposed,                            !- Wind Exposure
  ,                                       !- View Factor to Ground
  ,                                       !- Number of Vertices
  97, 3, 4,                               !- X,Y,Z Vertex 1 {m}
  97, 3, 0,                               !- X,Y,Z Vertex 2 {m}
  -3, 3, 0,                               !- X,Y,Z Vertex 3 {m}
  -3, 3, 4;                               !- X,Y,Z Vertex 4 {m}

OS:Surface,
  {67d8a572-6574-46f2-a7d7-233b9b94e0e8}, !- Handle
  Surface 9,                              !- Name
  Wall,                                   !- Surface Type
  ,                                       !- Construction Name
  {4b18d794-737f-4d12-8886-0022d0a7ba71}, !- Space Name
  Surface,                                !- Outside Boundary Condition
  {9e89b60c-9bad-4b0b-98f5-c843e57f9a1c}, !- Outside Boundary Condition Object
  NoSun,                                  !- Sun Exposure
  NoWind,                                 !- Wind Exposure
  ,                                       !- View Factor to Ground
  ,                                       !- Number of Vertices
  94, 0, 4,                               !- X,Y,Z Vertex 1 {m}
  94, 0, 0,                               !- X,Y,Z Vertex 2 {m}
  97, 3, 0,                               !- X,Y,Z Vertex 3 {m}
  97, 3, 4;                               !- X,Y,Z Vertex 4 {m}

OS:Surface,
  {e490a5ed-45ff-4bfd-9fa8-bd7289845d06}, !- Handle
  Surface 10,                             !- Name
  Wall,                                   !- Surface Type
  ,                                       !- Construction Name
  {4b18d794-737f-4d12-8886-0022d0a7ba71}, !- Space Name
  Surface,                                !- Outside Boundary Condition
  {1953406b-1a7b-47bd-ab83-cd2863753b58}, !- Outside Boundary Condition Object
  NoSun,                                  !- Sun Exposure
  NoWind,                                 !- Wind Exposure
  ,                                       !- View Factor to Ground
  ,                                       !- Number of Vertices
  0, 0, 4,                                !- X,Y,Z Vertex 1 {m}
  0, 0, 0,                                !- X,Y,Z Vertex 2 {m}
  94, 0, 0,                               !- X,Y,Z Vertex 3 {m}
  94, 0, 4;                               !- X,Y,Z Vertex 4 {m}

OS:Surface,
  {c6bba311-6e95-4a43-9384-4fe8b2cb9441}, !- Handle
  Surface 11,                             !- Name
  Wall,                                   !- Surface Type
  ,                                       !- Construction Name
  {4b18d794-737f-4d12-8886-0022d0a7ba71}, !- Space Name
  Surface,                                !- Outside Boundary Condition
  {14804450-f571-4894-9b09-c701a94c3ebe}, !- Outside Boundary Condition Object
  NoSun,                                  !- Sun Exposure
  NoWind,                                 !- Wind Exposure
  ,                                       !- View Factor to Ground
  ,                                       !- Number of Vertices
  -3, 3, 4,                               !- X,Y,Z Vertex 1 {m}
  -3, 3, 0,                               !- X,Y,Z Vertex 2 {m}
  0, 0, 0,                                !- X,Y,Z Vertex 3 {m}
  0, 0, 4;                                !- X,Y,Z Vertex 4 {m}

OS:Surface,
  {28372972-7c07-4c25-88c9-b1fe5dea14d4}, !- Handle
  Surface 12,                             !- Name
  RoofCeiling,                            !- Surface Type
  ,                                       !- Construction Name
  {4b18d794-737f-4d12-8886-0022d0a7ba71}, !- Space Name
  Surface,                                !- Outside Boundary Condition
  {9a4a8b81-9b59-421f-9353-d71bea07e96d}, !- Outside Boundary Condition Object
  NoSun,                                  !- Sun Exposure
  NoWind,                                 !- Wind Exposure
  ,                                       !- View Factor to Ground
  ,                                       !- Number of Vertices
  0, 0, 4,                                !- X,Y,Z Vertex 1 {m}
  94, 0, 4,                               !- X,Y,Z Vertex 2 {m}
  97, 3, 4,                               !- X,Y,Z Vertex 3 {m}
  -3, 3, 4;                               !- X,Y,Z Vertex 4 {m}

OS:Space,
  {cd272928-6e43-4b0d-a491-83eb66d06962}, !- Handle
  Story 1 East Perimeter Space,           !- Name
  ,                                       !- Space Type Name
  ,                                       !- Default Construction Set Name
  ,                                       !- Default Schedule Set Name
  -0,                                     !- Direction of Relative North {deg}
  97,                                     !- X Origin {m}
  3,                                      !- Y Origin {m}
  0,                                      !- Z Origin {m}
  {85059733-c997-451f-bd85-f024ee9a4742}, !- Building Story Name
  {3cce0bf6-1de9-42b9-9956-fb1147ca06f2}; !- Thermal Zone Name

OS:Surface,
  {9bf9160e-43f4-4131-add4-c02bd947cd42}, !- Handle
  Surface 13,                             !- Name
  Floor,                                  !- Surface Type
  {99dac45f-c1b9-46a6-aa59-35cf35308810}, !- Construction Name
  {cd272928-6e43-4b0d-a491-83eb66d06962}, !- Space Name
  Foundation,                             !- Outside Boundary Condition
  {e3508a86-dfc3-422d-b217-159727b3d37e}, !- Outside Boundary Condition Object
  NoSun,                                  !- Sun Exposure
  NoWind,                                 !- Wind Exposure
  ,                                       !- View Factor to Ground
  ,                                       !- Number of Vertices
  3, 47, 0,                               !- X,Y,Z Vertex 1 {m}
  3, -3, 0,                               !- X,Y,Z Vertex 2 {m}
  0, 0, 0,                                !- X,Y,Z Vertex 3 {m}
  0, 44, 0;                               !- X,Y,Z Vertex 4 {m}

OS:Surface,
  {3971e71f-2189-4d9d-944c-df140d496607}, !- Handle
  Surface 14,                             !- Name
  Wall,                                   !- Surface Type
  ,                                       !- Construction Name
  {cd272928-6e43-4b0d-a491-83eb66d06962}, !- Space Name
  Outdoors,                               !- Outside Boundary Condition
  ,                                       !- Outside Boundary Condition Object
  SunExposed,                             !- Sun Exposure
  WindExposed,                            !- Wind Exposure
  ,                                       !- View Factor to Ground
  ,                                       !- Number of Vertices
  3, -3, 4,                               !- X,Y,Z Vertex 1 {m}
  3, -3, 0,                               !- X,Y,Z Vertex 2 {m}
  3, 47, 0,                               !- X,Y,Z Vertex 3 {m}
  3, 47, 4;                               !- X,Y,Z Vertex 4 {m}

OS:Surface,
  {2c9192d9-678f-47a3-bab3-fbb8002fa2f7}, !- Handle
  Surface 15,                             !- Name
  Wall,                                   !- Surface Type
  ,                                       !- Construction Name
  {cd272928-6e43-4b0d-a491-83eb66d06962}, !- Space Name
  Surface,                                !- Outside Boundary Condition
  {1be46d3b-978a-4e9b-bcef-3dc1b3fbb6b4}, !- Outside Boundary Condition Object
  NoSun,                                  !- Sun Exposure
  NoWind,                                 !- Wind Exposure
  ,                                       !- View Factor to Ground
  ,                                       !- Number of Vertices
  0, 0, 4,                                !- X,Y,Z Vertex 1 {m}
  0, 0, 0,                                !- X,Y,Z Vertex 2 {m}
  3, -3, 0,                               !- X,Y,Z Vertex 3 {m}
  3, -3, 4;                               !- X,Y,Z Vertex 4 {m}

OS:Surface,
  {ca592daa-be55-44f8-aa1f-5d24a1156793}, !- Handle
  Surface 16,                             !- Name
  Wall,                                   !- Surface Type
  ,                                       !- Construction Name
  {cd272928-6e43-4b0d-a491-83eb66d06962}, !- Space Name
  Surface,                                !- Outside Boundary Condition
  {0f68107b-cc6a-4537-bcaf-22aa60253c1d}, !- Outside Boundary Condition Object
  NoSun,                                  !- Sun Exposure
  NoWind,                                 !- Wind Exposure
  ,                                       !- View Factor to Ground
  ,                                       !- Number of Vertices
  0, 44, 4,                               !- X,Y,Z Vertex 1 {m}
  0, 44, 0,                               !- X,Y,Z Vertex 2 {m}
  0, 0, 0,                                !- X,Y,Z Vertex 3 {m}
  0, 0, 4;                                !- X,Y,Z Vertex 4 {m}

OS:Surface,
  {9e89b60c-9bad-4b0b-98f5-c843e57f9a1c}, !- Handle
  Surface 17,                             !- Name
  Wall,                                   !- Surface Type
  ,                                       !- Construction Name
  {cd272928-6e43-4b0d-a491-83eb66d06962}, !- Space Name
  Surface,                                !- Outside Boundary Condition
  {67d8a572-6574-46f2-a7d7-233b9b94e0e8}, !- Outside Boundary Condition Object
  NoSun,                                  !- Sun Exposure
  NoWind,                                 !- Wind Exposure
  ,                                       !- View Factor to Ground
  ,                                       !- Number of Vertices
  3, 47, 4,                               !- X,Y,Z Vertex 1 {m}
  3, 47, 0,                               !- X,Y,Z Vertex 2 {m}
  0, 44, 0,                               !- X,Y,Z Vertex 3 {m}
  0, 44, 4;                               !- X,Y,Z Vertex 4 {m}

OS:Surface,
  {9012ce95-a471-4061-b3d8-4081b013103e}, !- Handle
  Surface 18,                             !- Name
  RoofCeiling,                            !- Surface Type
  ,                                       !- Construction Name
  {cd272928-6e43-4b0d-a491-83eb66d06962}, !- Space Name
  Surface,                                !- Outside Boundary Condition
  {4647c259-79ad-4e97-bfc8-35853bef3fd9}, !- Outside Boundary Condition Object
  NoSun,                                  !- Sun Exposure
  NoWind,                                 !- Wind Exposure
  ,                                       !- View Factor to Ground
  ,                                       !- Number of Vertices
  0, 44, 4,                               !- X,Y,Z Vertex 1 {m}
  0, 0, 4,                                !- X,Y,Z Vertex 2 {m}
  3, -3, 4,                               !- X,Y,Z Vertex 3 {m}
  3, 47, 4;                               !- X,Y,Z Vertex 4 {m}

OS:Space,
  {655010ef-4280-4a5a-980e-064d595927a3}, !- Handle
  Story 1 South Perimeter Space,          !- Name
  ,                                       !- Space Type Name
  ,                                       !- Default Construction Set Name
  ,                                       !- Default Schedule Set Name
  -0,                                     !- Direction of Relative North {deg}
  0,                                      !- X Origin {m}
  0,                                      !- Y Origin {m}
  0,                                      !- Z Origin {m}
  {85059733-c997-451f-bd85-f024ee9a4742}, !- Building Story Name
  {97c8499a-d37d-4e2d-bf15-c1ceb08175dd}; !- Thermal Zone Name

OS:Surface,
  {0172a772-69c2-46d9-b912-0a4396e132ad}, !- Handle
  Surface 19,                             !- Name
  Floor,                                  !- Surface Type
  {99dac45f-c1b9-46a6-aa59-35cf35308810}, !- Construction Name
  {655010ef-4280-4a5a-980e-064d595927a3}, !- Space Name
  Foundation,                             !- Outside Boundary Condition
  {e3508a86-dfc3-422d-b217-159727b3d37e}, !- Outside Boundary Condition Object
  NoSun,                                  !- Sun Exposure
  NoWind,                                 !- Wind Exposure
  ,                                       !- View Factor to Ground
  ,                                       !- Number of Vertices
  100, 0, 0,                              !- X,Y,Z Vertex 1 {m}
  0, 0, 0,                                !- X,Y,Z Vertex 2 {m}
  3, 3, 0,                                !- X,Y,Z Vertex 3 {m}
  97, 3, 0;                               !- X,Y,Z Vertex 4 {m}

OS:Surface,
  {84eb6916-8134-4c83-ad7a-fd64cba7aafd}, !- Handle
  Surface 20,                             !- Name
  Wall,                                   !- Surface Type
  ,                                       !- Construction Name
  {655010ef-4280-4a5a-980e-064d595927a3}, !- Space Name
  Outdoors,                               !- Outside Boundary Condition
  ,                                       !- Outside Boundary Condition Object
  SunExposed,                             !- Sun Exposure
  WindExposed,                            !- Wind Exposure
  ,                                       !- View Factor to Ground
  ,                                       !- Number of Vertices
  0, 0, 4,                                !- X,Y,Z Vertex 1 {m}
  0, 0, 0,                                !- X,Y,Z Vertex 2 {m}
  100, 0, 0,                              !- X,Y,Z Vertex 3 {m}
  100, 0, 4;                              !- X,Y,Z Vertex 4 {m}

OS:Surface,
  {82bd74a6-06af-4d3f-9846-c737c3f3f7a1}, !- Handle
  Surface 21,                             !- Name
  Wall,                                   !- Surface Type
  ,                                       !- Construction Name
  {655010ef-4280-4a5a-980e-064d595927a3}, !- Space Name
  Surface,                                !- Outside Boundary Condition
  {a000439b-0c07-4bde-ac0d-da5d16135b88}, !- Outside Boundary Condition Object
  NoSun,                                  !- Sun Exposure
  NoWind,                                 !- Wind Exposure
  ,                                       !- View Factor to Ground
  ,                                       !- Number of Vertices
  3, 3, 4,                                !- X,Y,Z Vertex 1 {m}
  3, 3, 0,                                !- X,Y,Z Vertex 2 {m}
  0, 0, 0,                                !- X,Y,Z Vertex 3 {m}
  0, 0, 4;                                !- X,Y,Z Vertex 4 {m}

OS:Surface,
  {2edfd5a2-7360-4f5e-afe3-0113e1a93f44}, !- Handle
  Surface 22,                             !- Name
  Wall,                                   !- Surface Type
  ,                                       !- Construction Name
  {655010ef-4280-4a5a-980e-064d595927a3}, !- Space Name
  Surface,                                !- Outside Boundary Condition
  {ae9aec44-8216-4190-9c20-f4def6fd26fb}, !- Outside Boundary Condition Object
  NoSun,                                  !- Sun Exposure
  NoWind,                                 !- Wind Exposure
  ,                                       !- View Factor to Ground
  ,                                       !- Number of Vertices
  97, 3, 4,                               !- X,Y,Z Vertex 1 {m}
  97, 3, 0,                               !- X,Y,Z Vertex 2 {m}
  3, 3, 0,                                !- X,Y,Z Vertex 3 {m}
  3, 3, 4;                                !- X,Y,Z Vertex 4 {m}

OS:Surface,
  {1be46d3b-978a-4e9b-bcef-3dc1b3fbb6b4}, !- Handle
  Surface 23,                             !- Name
  Wall,                                   !- Surface Type
  ,                                       !- Construction Name
  {655010ef-4280-4a5a-980e-064d595927a3}, !- Space Name
  Surface,                                !- Outside Boundary Condition
  {2c9192d9-678f-47a3-bab3-fbb8002fa2f7}, !- Outside Boundary Condition Object
  NoSun,                                  !- Sun Exposure
  NoWind,                                 !- Wind Exposure
  ,                                       !- View Factor to Ground
  ,                                       !- Number of Vertices
  100, 0, 4,                              !- X,Y,Z Vertex 1 {m}
  100, 0, 0,                              !- X,Y,Z Vertex 2 {m}
  97, 3, 0,                               !- X,Y,Z Vertex 3 {m}
  97, 3, 4;                               !- X,Y,Z Vertex 4 {m}

OS:Surface,
  {56dc215d-ca95-404f-8e88-f950b083e975}, !- Handle
  Surface 24,                             !- Name
  RoofCeiling,                            !- Surface Type
  ,                                       !- Construction Name
  {655010ef-4280-4a5a-980e-064d595927a3}, !- Space Name
  Surface,                                !- Outside Boundary Condition
  {6092a8ac-6428-426e-a5c8-ac1c92960927}, !- Outside Boundary Condition Object
  NoSun,                                  !- Sun Exposure
  NoWind,                                 !- Wind Exposure
  ,                                       !- View Factor to Ground
  ,                                       !- Number of Vertices
  97, 3, 4,                               !- X,Y,Z Vertex 1 {m}
  3, 3, 4,                                !- X,Y,Z Vertex 2 {m}
  0, 0, 4,                                !- X,Y,Z Vertex 3 {m}
  100, 0, 4;                              !- X,Y,Z Vertex 4 {m}

OS:Space,
  {f719636b-fac0-4c9d-a4f9-d5a9dcf59c88}, !- Handle
  Story 1 Core Space,                     !- Name
  ,                                       !- Space Type Name
  ,                                       !- Default Construction Set Name
  ,                                       !- Default Schedule Set Name
  -0,                                     !- Direction of Relative North {deg}
  3,                                      !- X Origin {m}
  3,                                      !- Y Origin {m}
  0,                                      !- Z Origin {m}
  {85059733-c997-451f-bd85-f024ee9a4742}, !- Building Story Name
  {a4c32a7d-c83a-473a-8d81-3151e039fb9b}; !- Thermal Zone Name

OS:Surface,
  {b4914bbd-6abc-4daf-8305-c42955339a35}, !- Handle
  Surface 25,                             !- Name
  Floor,                                  !- Surface Type
  {99dac45f-c1b9-46a6-aa59-35cf35308810}, !- Construction Name
  {f719636b-fac0-4c9d-a4f9-d5a9dcf59c88}, !- Space Name
  Foundation,                             !- Outside Boundary Condition
  {e3508a86-dfc3-422d-b217-159727b3d37e}, !- Outside Boundary Condition Object
  NoSun,                                  !- Sun Exposure
  NoWind,                                 !- Wind Exposure
  ,                                       !- View Factor to Ground
  ,                                       !- Number of Vertices
  0, 0, 0,                                !- X,Y,Z Vertex 1 {m}
  0, 44, 0,                               !- X,Y,Z Vertex 2 {m}
  94, 44, 0,                              !- X,Y,Z Vertex 3 {m}
  94, 0, 0;                               !- X,Y,Z Vertex 4 {m}

OS:Surface,
  {f76d81c6-4981-4b5d-bb63-78fc5895db5c}, !- Handle
  Surface 26,                             !- Name
  Wall,                                   !- Surface Type
  ,                                       !- Construction Name
  {f719636b-fac0-4c9d-a4f9-d5a9dcf59c88}, !- Space Name
  Surface,                                !- Outside Boundary Condition
  {653ec72c-3060-4882-8c10-ef1c9cf4d062}, !- Outside Boundary Condition Object
  NoSun,                                  !- Sun Exposure
  NoWind,                                 !- Wind Exposure
  ,                                       !- View Factor to Ground
  ,                                       !- Number of Vertices
  0, 44, 4,                               !- X,Y,Z Vertex 1 {m}
  0, 44, 0,                               !- X,Y,Z Vertex 2 {m}
  0, 0, 0,                                !- X,Y,Z Vertex 3 {m}
  0, 0, 4;                                !- X,Y,Z Vertex 4 {m}

OS:Surface,
  {1953406b-1a7b-47bd-ab83-cd2863753b58}, !- Handle
  Surface 27,                             !- Name
  Wall,                                   !- Surface Type
  ,                                       !- Construction Name
  {f719636b-fac0-4c9d-a4f9-d5a9dcf59c88}, !- Space Name
  Surface,                                !- Outside Boundary Condition
  {e490a5ed-45ff-4bfd-9fa8-bd7289845d06}, !- Outside Boundary Condition Object
  NoSun,                                  !- Sun Exposure
  NoWind,                                 !- Wind Exposure
  ,                                       !- View Factor to Ground
  ,                                       !- Number of Vertices
  94, 44, 4,                              !- X,Y,Z Vertex 1 {m}
  94, 44, 0,                              !- X,Y,Z Vertex 2 {m}
  0, 44, 0,                               !- X,Y,Z Vertex 3 {m}
  0, 44, 4;                               !- X,Y,Z Vertex 4 {m}

OS:Surface,
  {0f68107b-cc6a-4537-bcaf-22aa60253c1d}, !- Handle
  Surface 28,                             !- Name
  Wall,                                   !- Surface Type
  ,                                       !- Construction Name
  {f719636b-fac0-4c9d-a4f9-d5a9dcf59c88}, !- Space Name