
OS:Version,
  {b5dacf52-9e68-4cab-aa91-8a757468d9c7}, !- Handle
  2.3.0;                                  !- Version Identifier

OS:BuildingStory,
  {b6165fa8-8ef4-41eb-8061-f69548fa6eb5}, !- Handle
  Story 1,                                !- Name
  0,                                      !- Nominal Z Coordinate {m}
  4,                                      !- Nominal Floor to Floor Height {m}
  ,                                       !- Default Construction Set Name
  ,                                       !- Default Schedule Set Name
  ;                                       !- Group Rendering Name

OS:Space,
  {5afdfe7b-45f9-49f2-a0e9-f96a018091d9}, !- Handle
  Story 1 West Perimeter Space,           !- Name
  ,                                       !- Space Type Name
  ,                                       !- Default Construction Set Name
  ,                                       !- Default Schedule Set Name
  -0,                                     !- Direction of Relative North {deg}
  0,                                      !- X Origin {m}
  0,                                      !- Y Origin {m}
  0,                                      !- Z Origin {m}
  {b6165fa8-8ef4-41eb-8061-f69548fa6eb5}, !- Building Story Name
  {08fcf588-ed14-4ef8-8eb4-eb257a8c7fb4}; !- Thermal Zone Name

OS:Surface,
  {69e948f5-5e2b-47b9-abb7-5817639e7ad3}, !- Handle
  Surface 1,                              !- Name
  Floor,                                  !- Surface Type
  {41678d08-f9c0-4c3c-bafe-ccd08130b5c1}, !- Construction Name
  {5afdfe7b-45f9-49f2-a0e9-f96a018091d9}, !- Space Name
  Foundation,                             !- Outside Boundary Condition
  {c83448e1-5ea1-4493-b3c4-58dde5b28f1b}, !- Outside Boundary Condition Object
  NoSun,                                  !- Sun Exposure
  NoWind,                                 !- Wind Exposure
  ,                                       !- View Factor to Ground
  ,                                       !- Number of Vertices
  0, 0, 0,                                !- X,Y,Z Vertex 1 {m}
  0, 50, 0,                               !- X,Y,Z Vertex 2 {m}
  3, 47, 0,                               !- X,Y,Z Vertex 3 {m}
  3, 3, 0;                                !- X,Y,Z Vertex 4 {m}

OS:Surface,
  {9f4a58cb-6a2f-4051-90c4-5752ba1b9e52}, !- Handle
  Surface 2,                              !- Name
  Wall,                                   !- Surface Type
  ,                                       !- Construction Name
  {5afdfe7b-45f9-49f2-a0e9-f96a018091d9}, !- Space Name
  Outdoors,                               !- Outside Boundary Condition
  ,                                       !- Outside Boundary Condition Object
  SunExposed,                             !- Sun Exposure
  WindExposed,                            !- Wind Exposure
  ,                                       !- View Factor to Ground
  ,                                       !- Number of Vertices
  0, 50, 4,                               !- X,Y,Z Vertex 1 {m}
  0, 50, 0,                               !- X,Y,Z Vertex 2 {m}
  0, 0, 0,                                !- X,Y,Z Vertex 3 {m}
  0, 0, 4;                                !- X,Y,Z Vertex 4 {m}

OS:Surface,
  {9328da53-3100-4e3d-b0a3-ee96a5fb42b0}, !- Handle
  Surface 3,                              !- Name
  Wall,                                   !- Surface Type
  ,                                       !- Construction Name
  {5afdfe7b-45f9-49f2-a0e9-f96a018091d9}, !- Space Name
  Surface,                                !- Outside Boundary Condition
  {117d5c95-a91d-42e9-bd57-9c6b1923b9f8}, !- Outside Boundary Condition Object
  NoSun,                                  !- Sun Exposure
  NoWind,                                 !- Wind Exposure
  ,                                       !- View Factor to Ground
  ,                                       !- Number of Vertices
  3, 47, 4,                               !- X,Y,Z Vertex 1 {m}
  3, 47, 0,                               !- X,Y,Z Vertex 2 {m}
  0, 50, 0,                               !- X,Y,Z Vertex 3 {m}
  0, 50, 4;                               !- X,Y,Z Vertex 4 {m}

OS:Surface,
  {0b2551ae-5aea-40e0-b242-ded20d698185}, !- Handle
  Surface 4,                              !- Name
  Wall,                                   !- Surface Type
  ,                                       !- Construction Name
  {5afdfe7b-45f9-49f2-a0e9-f96a018091d9}, !- Space Name
  Surface,                                !- Outside Boundary Condition
  {2f3685c7-6097-4dbe-a3c0-ad35f6e79f0d}, !- Outside Boundary Condition Object
  NoSun,                                  !- Sun Exposure
  NoWind,                                 !- Wind Exposure
  ,                                       !- View Factor to Ground
  ,                                       !- Number of Vertices
  3, 3, 4,                                !- X,Y,Z Vertex 1 {m}
  3, 3, 0,                                !- X,Y,Z Vertex 2 {m}
  3, 47, 0,                               !- X,Y,Z Vertex 3 {m}
  3, 47, 4;                               !- X,Y,Z Vertex 4 {m}

OS:Surface,
  {77c6b0a4-2ec6-4b51-8c26-d3e782e64f37}, !- Handle
  Surface 5,                              !- Name
  Wall,                                   !- Surface Type
  ,                                       !- Construction Name
  {5afdfe7b-45f9-49f2-a0e9-f96a018091d9}, !- Space Name
  Surface,                                !- Outside Boundary Condition
  {613d1ecb-12ff-46a5-9995-6b93e0f23870}, !- Outside Boundary Condition Object
  NoSun,                                  !- Sun Exposure
  NoWind,                                 !- Wind Exposure
  ,                                       !- View Factor to Ground
  ,                                       !- Number of Vertices
  0, 0, 4,                                !- X,Y,Z Vertex 1 {m}
  0, 0, 0,                                !- X,Y,Z Vertex 2 {m}
  3, 3, 0,                                !- X,Y,Z Vertex 3 {m}
  3, 3, 4;                                !- X,Y,Z Vertex 4 {m}

OS:Surface,
  {309f8b03-ccb7-46b9-baec-7df9f3c3111d}, !- Handle
  Surface 6,                              !- Name
  RoofCeiling,                            !- Surface Type
  ,                                       !- Construction Name
  {5afdfe7b-45f9-49f2-a0e9-f96a018091d9}, !- Space Name
  Surface,                                !- Outside Boundary Condition
  {4ebe0736-86ef-4af9-b62b-6a32e3c0b6bf}, !- Outside Boundary Condition Object
  NoSun,                                  !- Sun Exposure
  NoWind,                                 !- Wind Exposure
  ,                                       !- View Factor to Ground
  ,                                       !- Number of Vertices
  3, 3, 4,                                !- X,Y,Z Vertex 1 {m}
  3, 47, 4,                               !- X,Y,Z Vertex 2 {m}
  0, 50, 4,                               !- X,Y,Z Vertex 3 {m}
  0, 0, 4;                                !- X,Y,Z Vertex 4 {m}

OS:Space,
  {c376314f-48df-4342-85d7-cda8d61ff2f3}, !- Handle
  Story 1 North Perimeter Space,          !- Name
  ,                                       !- Space Type Name
  ,                                       !- Default Construction Set Name
  ,                                       !- Default Schedule Set Name
  -0,                                     !- Direction of Relative North {deg}
  3,                                      !- X Origin {m}
  47,                                     !- Y Origin {m}
  0,                                      !- Z Origin {m}
  {b6165fa8-8ef4-41eb-8061-f69548fa6eb5}, !- Building Story Name
  {000d349e-a24c-4724-88d4-4e7d08751142}; !- Thermal Zone Name

OS:Surface,
  {c1db3d4b-c7a8-44ee-9631-f16ac1963ffc}, !- Handle
  Surface 7,                              !- Name
  Floor,                                  !- Surface Type
  {41678d08-f9c0-4c3c-bafe-ccd08130b5c1}, !- Construction Name
  {c376314f-48df-4342-85d7-cda8d61ff2f3}, !- Space Name
  Foundation,                             !- Outside Boundary Condition
  {c83448e1-5ea1-4493-b3c4-58dde5b28f1b}, !- Outside Boundary Condition Object
  NoSun,                                  !- Sun Exposure
  NoWind,                                 !- Wind Exposure
  ,                                       !- View Factor to Ground
  ,                                       !- Number of Vertices
  -3, 3, 0,                               !- X,Y,Z Vertex 1 {m}
  97, 3, 0,                               !- X,Y,Z Vertex 2 {m}
  94, 0, 0,                               !- X,Y,Z Vertex 3 {m}
  0, 0, 0;                                !- X,Y,Z Vertex 4 {m}

OS:Surface,
  {0537b6df-a21c-4825-86ca-cc20e996b777}, !- Handle
  Surface 8,                              !- Name
  Wall,                                   !- Surface Type
  ,                                       !- Construction Name
  {c376314f-48df-4342-85d7-cda8d61ff2f3}, !- Space Name
  Outdoors,                               !- Outside Boundary Condition
  ,                                       !- Outside Boundary Condition Object
  SunExposed,                             !- Sun Exposure
  WindExposed,                            !- Wind Exposure
  ,                                       !- View Factor to Ground
  ,                                       !- Number of Vertices
  97, 3, 4,                               !- X,Y,Z Vertex 1 {m}
  97, 3, 0,                               !- X,Y,Z Vertex 2 {m}
  -3, 3, 0,                               !- X,Y,Z Vertex 3 {m}
  -3, 3, 4;                               !- X,Y,Z Vertex 4 {m}

OS:Surface,
  {49eee2c3-cec7-49fc-a05b-9e98d997e6a2}, !- Handle
  Surface 9,                              !- Name
  Wall,                                   !- Surface Type
  ,                                       !- Construction Name
  {c376314f-48df-4342-85d7-cda8d61ff2f3}, !- Space Name
  Surface,                                !- Outside Boundary Condition
  {7a1888cc-49b0-448a-8721-8f02e8c0194c}, !- Outside Boundary Condition Object
  NoSun,                                  !- Sun Exposure
  NoWind,                                 !- Wind Exposure
  ,                                       !- View Factor to Ground
  ,                                       !- Number of Vertices
  94, 0, 4,                               !- X,Y,Z Vertex 1 {m}
  94, 0, 0,                               !- X,Y,Z Vertex 2 {m}
  97, 3, 0,                               !- X,Y,Z Vertex 3 {m}
  97, 3, 4;                               !- X,Y,Z Vertex 4 {m}

OS:Surface,
  {5d0aa39c-8274-4fed-be42-660d7e0793df}, !- Handle
  Surface 10,                             !- Name
  Wall,                                   !- Surface Type
  ,                                       !- Construction Name
  {c376314f-48df-4342-85d7-cda8d61ff2f3}, !- Space Name
  Surface,                                !- Outside Boundary Condition
  {e5405f61-4282-4417-a16d-8f17ce7d59f0}, !- Outside Boundary Condition Object
  NoSun,                                  !- Sun Exposure
  NoWind,                                 !- Wind Exposure
  ,                                       !- View Factor to Ground
  ,                                       !- Number of Vertices
  0, 0, 4,                                !- X,Y,Z Vertex 1 {m}
  0, 0, 0,                                !- X,Y,Z Vertex 2 {m}
  94, 0, 0,                               !- X,Y,Z Vertex 3 {m}
  94, 0, 4;                               !- X,Y,Z Vertex 4 {m}

OS:Surface,
  {117d5c95-a91d-42e9-bd57-9c6b1923b9f8}, !- Handle
  Surface 11,                             !- Name
  Wall,                                   !- Surface Type
  ,                                       !- Construction Name
  {c376314f-48df-4342-85d7-cda8d61ff2f3}, !- Space Name
  Surface,                                !- Outside Boundary Condition
  {9328da53-3100-4e3d-b0a3-ee96a5fb42b0}, !- Outside Boundary Condition Object
  NoSun,                                  !- Sun Exposure
  NoWind,                                 !- Wind Exposure
  ,                                       !- View Factor to Ground
  ,                                       !- Number of Vertices
  -3, 3, 4,                               !- X,Y,Z Vertex 1 {m}
  -3, 3, 0,                               !- X,Y,Z Vertex 2 {m}
  0, 0, 0,                                !- X,Y,Z Vertex 3 {m}
  0, 0, 4;                                !- X,Y,Z Vertex 4 {m}

OS:Surface,
  {9863263b-2bfc-4af7-8457-0e54033506fc}, !- Handle
  Surface 12,                             !- Name
  RoofCeiling,                            !- Surface Type
  ,                                       !- Construction Name
  {c376314f-48df-4342-85d7-cda8d61ff2f3}, !- Space Name
  Surface,                                !- Outside Boundary Condition
  {d39f7bb9-ab14-47df-84ff-e3a21d55741e}, !- Outside Boundary Condition Object
  NoSun,                                  !- Sun Exposure
  NoWind,                                 !- Wind Exposure
  ,                                       !- View Factor to Ground
  ,                                       !- Number of Vertices
  0, 0, 4,                                !- X,Y,Z Vertex 1 {m}
  94, 0, 4,                               !- X,Y,Z Vertex 2 {m}
  97, 3, 4,                               !- X,Y,Z Vertex 3 {m}
  -3, 3, 4;                               !- X,Y,Z Vertex 4 {m}

OS:Space,
  {992ff2dd-b6df-4353-8c13-6320699c5ec0}, !- Handle
  Story 1 East Perimeter Space,           !- Name
  ,                                       !- Space Type Name
  ,                                       !- Default Construction Set Name
  ,                                       !- Default Schedule Set Name
  -0,                                     !- Direction of Relative North {deg}
  97,                                     !- X Origin {m}
  3,                                      !- Y Origin {m}
  0,                                      !- Z Origin {m}
  {b6165fa8-8ef4-41eb-8061-f69548fa6eb5}, !- Building Story Name
  {a5c962a0-4f71-4480-95a9-66ec5005eab0}; !- Thermal Zone Name

OS:Surface,
  {e50f3317-29a4-47b8-b84a-1a54984b97c7}, !- Handle
  Surface 13,                             !- Name
  Floor,                                  !- Surface Type
  {41678d08-f9c0-4c3c-bafe-ccd08130b5c1}, !- Construction Name
  {992ff2dd-b6df-4353-8c13-6320699c5ec0}, !- Space Name
  Foundation,                             !- Outside Boundary Condition
  {c83448e1-5ea1-4493-b3c4-58dde5b28f1b}, !- Outside Boundary Condition Object
  NoSun,                                  !- Sun Exposure
  NoWind,                                 !- Wind Exposure
  ,                                       !- View Factor to Ground
  ,                                       !- Number of Vertices
  3, 47, 0,                               !- X,Y,Z Vertex 1 {m}
  3, -3, 0,                               !- X,Y,Z Vertex 2 {m}
  0, 0, 0,                                !- X,Y,Z Vertex 3 {m}
  0, 44, 0;                               !- X,Y,Z Vertex 4 {m}

OS:Surface,
  {029922aa-0c37-4550-a65b-cbbf92d82537}, !- Handle
  Surface 14,                             !- Name
  Wall,                                   !- Surface Type
  ,                                       !- Construction Name
  {992ff2dd-b6df-4353-8c13-6320699c5ec0}, !- Space Name
  Outdoors,                               !- Outside Boundary Condition
  ,                                       !- Outside Boundary Condition Object
  SunExposed,                             !- Sun Exposure
  WindExposed,                            !- Wind Exposure
  ,                                       !- View Factor to Ground
  ,                                       !- Number of Vertices
  3, -3, 4,                               !- X,Y,Z Vertex 1 {m}
  3, -3, 0,                               !- X,Y,Z Vertex 2 {m}
  3, 47, 0,                               !- X,Y,Z Vertex 3 {m}
  3, 47, 4;                               !- X,Y,Z Vertex 4 {m}

OS:Surface,
  {a53d9194-8758-4840-b7f1-d2de1981d5a8}, !- Handle
  Surface 15,                             !- Name
  Wall,                                   !- Surface Type
  ,                                       !- Construction Name
  {992ff2dd-b6df-4353-8c13-6320699c5ec0}, !- Space Name
  Surface,                                !- Outside Boundary Condition
  {db268963-e5a5-44b6-8064-0f48d841baf7}, !- Outside Boundary Condition Object
  NoSun,                                  !- Sun Exposure
  NoWind,                                 !- Wind Exposure
  ,                                       !- View Factor to Ground
  ,                                       !- Number of Vertices
  0, 0, 4,                                !- X,Y,Z Vertex 1 {m}
  0, 0, 0,                                !- X,Y,Z Vertex 2 {m}
  3, -3, 0,                               !- X,Y,Z Vertex 3 {m}
  3, -3, 4;                               !- X,Y,Z Vertex 4 {m}

OS:Surface,
  {7341ac4b-9c31-4515-b9cc-39a14d4650f6}, !- Handle
  Surface 16,                             !- Name
  Wall,                                   !- Surface Type
  ,                                       !- Construction Name
  {992ff2dd-b6df-4353-8c13-6320699c5ec0}, !- Space Name
  Surface,                                !- Outside Boundary Condition
  {f220a2fb-7efc-4ec9-b215-ef341208e158}, !- Outside Boundary Condition Object
  NoSun,                                  !- Sun Exposure
  NoWind,                                 !- Wind Exposure
  ,                                       !- View Factor to Ground
  ,                                       !- Number of Vertices
  0, 44, 4,                               !- X,Y,Z Vertex 1 {m}
  0, 44, 0,                               !- X,Y,Z Vertex 2 {m}
  0, 0, 0,                                !- X,Y,Z Vertex 3 {m}
  0, 0, 4;                                !- X,Y,Z Vertex 4 {m}

OS:Surface,
  {7a1888cc-49b0-448a-8721-8f02e8c0194c}, !- Handle
  Surface 17,                             !- Name
  Wall,                                   !- Surface Type
  ,                                       !- Construction Name
  {992ff2dd-b6df-4353-8c13-6320699c5ec0}, !- Space Name
  Surface,                                !- Outside Boundary Condition
  {49eee2c3-cec7-49fc-a05b-9e98d997e6a2}, !- Outside Boundary Condition Object
  NoSun,                                  !- Sun Exposure
  NoWind,                                 !- Wind Exposure
  ,                                       !- View Factor to Ground
  ,                                       !- Number of Vertices
  3, 47, 4,                               !- X,Y,Z Vertex 1 {m}
  3, 47, 0,                               !- X,Y,Z Vertex 2 {m}
  0, 44, 0,                               !- X,Y,Z Vertex 3 {m}
  0, 44, 4;                               !- X,Y,Z Vertex 4 {m}

OS:Surface,
  {e708f81a-c8d9-4ea9-a172-12a4f8425553}, !- Handle
  Surface 18,                             !- Name
  RoofCeiling,                            !- Surface Type
  ,                                       !- Construction Name
  {992ff2dd-b6df-4353-8c13-6320699c5ec0}, !- Space Name
  Surface,                                !- Outside Boundary Condition
  {61f16b64-b0cc-45e9-8098-88a7c4a07cfc}, !- Outside Boundary Condition Object
  NoSun,                                  !- Sun Exposure
  NoWind,                                 !- Wind Exposure
  ,                                       !- View Factor to Ground
  ,                                       !- Number of Vertices
  0, 44, 4,                               !- X,Y,Z Vertex 1 {m}
  0, 0, 4,                                !- X,Y,Z Vertex 2 {m}
  3, -3, 4,                               !- X,Y,Z Vertex 3 {m}
  3, 47, 4;                               !- X,Y,Z Vertex 4 {m}

OS:Space,
  {03cb3cc4-130a-4675-ba47-cd9bf532cb1d}, !- Handle
  Story 1 South Perimeter Space,          !- Name
  ,                                       !- Space Type Name
  ,                                       !- Default Construction Set Name
  ,                                       !- Default Schedule Set Name
  -0,                                     !- Direction of Relative North {deg}
  0,                                      !- X Origin {m}
  0,                                      !- Y Origin {m}
  0,                                      !- Z Origin {m}
  {b6165fa8-8ef4-41eb-8061-f69548fa6eb5}, !- Building Story Name
  {359102af-ad20-498b-bd60-e6c90c6ca454}; !- Thermal Zone Name

OS:Surface,
  {03ce9de2-06ff-4b0b-a679-a229f3ec5312}, !- Handle
  Surface 19,                             !- Name
  Floor,                                  !- Surface Type
  {41678d08-f9c0-4c3c-bafe-ccd08130b5c1}, !- Construction Name
  {03cb3cc4-130a-4675-ba47-cd9bf532cb1d}, !- Space Name
  Foundation,                             !- Outside Boundary Condition
  {c83448e1-5ea1-4493-b3c4-58dde5b28f1b}, !- Outside Boundary Condition Object
  NoSun,                                  !- Sun Exposure
  NoWind,                                 !- Wind Exposure
  ,                                       !- View Factor to Ground
  ,                                       !- Number of Vertices
  100, 0, 0,                              !- X,Y,Z Vertex 1 {m}
  0, 0, 0,                                !- X,Y,Z Vertex 2 {m}
  3, 3, 0,                                !- X,Y,Z Vertex 3 {m}
  97, 3, 0;                               !- X,Y,Z Vertex 4 {m}

OS:Surface,
  {afb4c817-0376-4386-bdc7-30e8732258e4}, !- Handle
  Surface 20,                             !- Name
  Wall,                                   !- Surface Type
  ,                                       !- Construction Name
  {03cb3cc4-130a-4675-ba47-cd9bf532cb1d}, !- Space Name
  Outdoors,                               !- Outside Boundary Condition
  ,                                       !- Outside Boundary Condition Object
  SunExposed,                             !- Sun Exposure
  WindExposed,                            !- Wind Exposure
  ,                                       !- View Factor to Ground
  ,                                       !- Number of Vertices
  0, 0, 4,                                !- X,Y,Z Vertex 1 {m}
  0, 0, 0,                                !- X,Y,Z Vertex 2 {m}
  100, 0, 0,                              !- X,Y,Z Vertex 3 {m}
  100, 0, 4;                              !- X,Y,Z Vertex 4 {m}

OS:Surface,
  {613d1ecb-12ff-46a5-9995-6b93e0f23870}, !- Handle
  Surface 21,                             !- Name
  Wall,                                   !- Surface Type
  ,                                       !- Construction Name
  {03cb3cc4-130a-4675-ba47-cd9bf532cb1d}, !- Space Name
  Surface,                                !- Outside Boundary Condition
  {77c6b0a4-2ec6-4b51-8c26-d3e782e64f37}, !- Outside Boundary Condition Object
  NoSun,                                  !- Sun Exposure
  NoWind,                                 !- Wind Exposure
  ,                                       !- View Factor to Ground
  ,                                       !- Number of Vertices
  3, 3, 4,                                !- X,Y,Z Vertex 1 {m}
  3, 3, 0,                                !- X,Y,Z Vertex 2 {m}
  0, 0, 0,                                !- X,Y,Z Vertex 3 {m}
  0, 0, 4;                                !- X,Y,Z Vertex 4 {m}

OS:Surface,
  {1c604acf-377b-46b3-b256-8e0655784695}, !- Handle
  Surface 22,                             !- Name
  Wall,                                   !- Surface Type
  ,                                       !- Construction Name
  {03cb3cc4-130a-4675-ba47-cd9bf532cb1d}, !- Space Name
  Surface,                                !- Outside Boundary Condition
  {7e7a27b3-e747-4ff5-805e-0fb0fe449a77}, !- Outside Boundary Condition Object
  NoSun,                                  !- Sun Exposure
  NoWind,                                 !- Wind Exposure
  ,                                       !- View Factor to Ground
  ,                                       !- Number of Vertices
  97, 3, 4,                               !- X,Y,Z Vertex 1 {m}
  97, 3, 0,                               !- X,Y,Z Vertex 2 {m}
  3, 3, 0,                                !- X,Y,Z Vertex 3 {m}
  3, 3, 4;                                !- X,Y,Z Vertex 4 {m}

OS:Surface,
  {db268963-e5a5-44b6-8064-0f48d841baf7}, !- Handle
  Surface 23,                             !- Name
  Wall,                                   !- Surface Type
  ,                                       !- Construction Name
  {03cb3cc4-130a-4675-ba47-cd9bf532cb1d}, !- Space Name
  Surface,                                !- Outside Boundary Condition
  {a53d9194-8758-4840-b7f1-d2de1981d5a8}, !- Outside Boundary Condition Object
  NoSun,                                  !- Sun Exposure
  NoWind,                                 !- Wind Exposure
  ,                                       !- View Factor to Ground
  ,                                       !- Number of Vertices
  100, 0, 4,                              !- X,Y,Z Vertex 1 {m}
  100, 0, 0,                              !- X,Y,Z Vertex 2 {m}
  97, 3, 0,                               !- X,Y,Z Vertex 3 {m}
  97, 3, 4;                               !- X,Y,Z Vertex 4 {m}

OS:Surface,
  {2134e5b5-6426-4a43-b0c7-f3fd7495203a}, !- Handle
  Surface 24,                             !- Name
  RoofCeiling,                            !- Surface Type
  ,                                       !- Construction Name
  {03cb3cc4-130a-4675-ba47-cd9bf532cb1d}, !- Space Name
  Surface,                                !- Outside Boundary Condition
  {f40c0f1a-d5f0-4871-89cd-9eb2a5c3b192}, !- Outside Boundary Condition Object
  NoSun,                                  !- Sun Exposure
  NoWind,                                 !- Wind Exposure
  ,                                       !- View Factor to Ground
  ,                                       !- Number of Vertices
  97, 3, 4,                               !- X,Y,Z Vertex 1 {m}
  3, 3, 4,                                !- X,Y,Z Vertex 2 {m}
  0, 0, 4,                                !- X,Y,Z Vertex 3 {m}
  100, 0, 4;                              !- X,Y,Z Vertex 4 {m}

OS:Space,
  {e708ea73-4b4e-46e8-852e-2b1c5a7e9405}, !- Handle
  Story 1 Core Space,                     !- Name
  ,                                       !- Space Type Name
  ,                                       !- Default Construction Set Name
  ,                                       !- Default Schedule Set Name
  -0,                                     !- Direction of Relative North {deg}
  3,                                      !- X Origin {m}
  3,                                      !- Y Origin {m}
  0,                                      !- Z Origin {m}
  {b6165fa8-8ef4-41eb-8061-f69548fa6eb5}, !- Building Story Name
  {389e6f04-1252-4653-96f2-a007403ceede}; !- Thermal Zone Name

OS:Surface,
  {97686668-678d-465b-bac6-c617669906d3}, !- Handle
  Surface 25,                             !- Name
  Floor,                                  !- Surface Type
  {41678d08-f9c0-4c3c-bafe-ccd08130b5c1}, !- Construction Name
  {e708ea73-4b4e-46e8-852e-2b1c5a7e9405}, !- Space Name
  Foundation,                             !- Outside Boundary Condition
  {c83448e1-5ea1-4493-b3c4-58dde5b28f1b}, !- Outside Boundary Condition Object
  NoSun,                                  !- Sun Exposure
  NoWind,                                 !- Wind Exposure
  ,                                       !- View Factor to Ground
  ,                                       !- Number of Vertices
  0, 0, 0,                                !- X,Y,Z Vertex 1 {m}
  0, 44, 0,                               !- X,Y,Z Vertex 2 {m}
  94, 44, 0,                              !- X,Y,Z Vertex 3 {m}
  94, 0, 0;                               !- X,Y,Z Vertex 4 {m}

OS:Surface,
  {2f3685c7-6097-4dbe-a3c0-ad35f6e79f0d}, !- Handle
  Surface 26,                             !- Name
  Wall,                                   !- Surface Type
  ,                                       !- Construction Name
  {e708ea73-4b4e-46e8-852e-2b1c5a7e9405}, !- Space Name
  Surface,                                !- Outside Boundary Condition
  {0b2551ae-5aea-40e0-b242-ded20d698185}, !- Outside Boundary Condition Object
  NoSun,                                  !- Sun Exposure
  NoWind,                                 !- Wind Exposure
  ,                                       !- View Factor to Ground
  ,                                       !- Number of Vertices
  0, 44, 4,                               !- X,Y,Z Vertex 1 {m}
  0, 44, 0,                               !- X,Y,Z Vertex 2 {m}
  0, 0, 0,                                !- X,Y,Z Vertex 3 {m}
  0, 0, 4;                                !- X,Y,Z Vertex 4 {m}

OS:Surface,
  {e5405f61-4282-4417-a16d-8f17ce7d59f0}, !- Handle
  Surface 27,                             !- Name
  Wall,                                   !- Surface Type
  ,                                       !- Construction Name
  {e708ea73-4b4e-46e8-852e-2b1c5a7e9405}, !- Space Name
  Surface,                                !- Outside Boundary Condition
  {5d0aa39c-8274-4fed-be42-660d7e0793df}, !- Outside Boundary Condition Object
  NoSun,                                  !- Sun Exposure
  NoWind,                                 !- Wind Exposure
  ,                                       !- View Factor to Ground
  ,                                       !- Number of Vertices
  94, 44, 4,                              !- X,Y,Z Vertex 1 {m}
  94, 44, 0,                              !- X,Y,Z Vertex 2 {m}
  0, 44, 0,                               !- X,Y,Z Vertex 3 {m}
  0, 44, 4;                               !- X,Y,Z Vertex 4 {m}

OS:Surface,
  {f220a2fb-7efc-4ec9-b215-ef341208e158}, !- Handle
  Surface 28,                             !- Name
  Wall,                                   !- Surface Type
  ,                                       !- Construction Name
  {e708ea73-4b4e-46e8-852e-2b1c5a7e9405}, !- Space Name