
OS:Version,
  {bbf5fc83-b947-41cb-9143-8bd94117d49e}, !- Handle
  2.4.1;                                  !- Version Identifier

OS:BuildingStory,
  {01e82ab9-d8bc-47bd-b4a0-06564d6e9965}, !- Handle
  Story 1,                                !- Name
  0,                                      !- Nominal Z Coordinate {m}
  4,                                      !- Nominal Floor to Floor Height {m}
  ,                                       !- Default Construction Set Name
  ,                                       !- Default Schedule Set Name
  ;                                       !- Group Rendering Name

OS:Space,
  {423dc8e5-1dc3-4b11-91c7-bccb888d00d2}, !- Handle
  Story 1 West Perimeter Space,           !- Name
  ,                                       !- Space Type Name
  ,                                       !- Default Construction Set Name
  ,                                       !- Default Schedule Set Name
  -0,                                     !- Direction of Relative North {deg}
  0,                                      !- X Origin {m}
  0,                                      !- Y Origin {m}
  0,                                      !- Z Origin {m}
  {01e82ab9-d8bc-47bd-b4a0-06564d6e9965}, !- Building Story Name
  {d6d03631-d40d-48f1-b6d6-599a006fd13b}; !- Thermal Zone Name

OS:Surface,
  {01e5f4fb-aa41-4378-9744-11e2192e0c89}, !- Handle
  Surface 1,                              !- Name
  Floor,                                  !- Surface Type
  {b9c073d3-756e-4a30-9265-6c892e58f6dd}, !- Construction Name
  {423dc8e5-1dc3-4b11-91c7-bccb888d00d2}, !- Space Name
  Foundation,                             !- Outside Boundary Condition
  {fd14e13b-94ff-40df-9f46-4d1d50a1dd76}, !- Outside Boundary Condition Object
  NoSun,                                  !- Sun Exposure
  NoWind,                                 !- Wind Exposure
  ,                                       !- View Factor to Ground
  ,                                       !- Number of Vertices
  0, 0, 0,                                !- X,Y,Z Vertex 1 {m}
  0, 50, 0,                               !- X,Y,Z Vertex 2 {m}
  3, 47, 0,                               !- X,Y,Z Vertex 3 {m}
  3, 3, 0;                                !- X,Y,Z Vertex 4 {m}

OS:Surface,
  {6e2e005a-56d4-4f61-84fb-00a90698435f}, !- Handle
  Surface 2,                              !- Name
  Wall,                                   !- Surface Type
  ,                                       !- Construction Name
  {423dc8e5-1dc3-4b11-91c7-bccb888d00d2}, !- Space Name
  Outdoors,                               !- Outside Boundary Condition
  ,                                       !- Outside Boundary Condition Object
  SunExposed,                             !- Sun Exposure
  WindExposed,                            !- Wind Exposure
  ,                                       !- View Factor to Ground
  ,                                       !- Number of Vertices
  0, 50, 4,                               !- X,Y,Z Vertex 1 {m}
  0, 50, 0,                               !- X,Y,Z Vertex 2 {m}
  0, 0, 0,                                !- X,Y,Z Vertex 3 {m}
  0, 0, 4;                                !- X,Y,Z Vertex 4 {m}

OS:Surface,
  {f235e90c-d5c8-40f8-9e2c-5b02b7641d82}, !- Handle
  Surface 3,                              !- Name
  Wall,                                   !- Surface Type
  ,                                       !- Construction Name
  {423dc8e5-1dc3-4b11-91c7-bccb888d00d2}, !- Space Name
  Surface,                                !- Outside Boundary Condition
  {133abdd8-af5c-47af-ba1d-f03f9ab9eb3e}, !- Outside Boundary Condition Object
  NoSun,                                  !- Sun Exposure
  NoWind,                                 !- Wind Exposure
  ,                                       !- View Factor to Ground
  ,                                       !- Number of Vertices
  3, 47, 4,                               !- X,Y,Z Vertex 1 {m}
  3, 47, 0,                               !- X,Y,Z Vertex 2 {m}
  0, 50, 0,                               !- X,Y,Z Vertex 3 {m}
  0, 50, 4;                               !- X,Y,Z Vertex 4 {m}

OS:Surface,
  {70d063d7-5771-4adc-a18f-7ab976aa62d1}, !- Handle
  Surface 4,                              !- Name
  Wall,                                   !- Surface Type
  ,                                       !- Construction Name
  {423dc8e5-1dc3-4b11-91c7-bccb888d00d2}, !- Space Name
  Surface,                                !- Outside Boundary Condition
  {cfd4ad88-0c13-4cfe-8b7f-4e9d97c511a7}, !- Outside Boundary Condition Object
  NoSun,                                  !- Sun Exposure
  NoWind,                                 !- Wind Exposure
  ,                                       !- View Factor to Ground
  ,                                       !- Number of Vertices
  3, 3, 4,                                !- X,Y,Z Vertex 1 {m}
  3, 3, 0,                                !- X,Y,Z Vertex 2 {m}
  3, 47, 0,                               !- X,Y,Z Vertex 3 {m}
  3, 47, 4;                               !- X,Y,Z Vertex 4 {m}

OS:Surface,
  {cd98bfd9-12ff-412f-9cf8-39b7b92fd09f}, !- Handle
  Surface 5,                              !- Name
  Wall,                                   !- Surface Type
  ,                                       !- Construction Name
  {423dc8e5-1dc3-4b11-91c7-bccb888d00d2}, !- Space Name
  Surface,                                !- Outside Boundary Condition
  {001d9377-483f-48b2-91f4-64d44ca067bb}, !- Outside Boundary Condition Object
  NoSun,                                  !- Sun Exposure
  NoWind,                                 !- Wind Exposure
  ,                                       !- View Factor to Ground
  ,                                       !- Number of Vertices
  0, 0, 4,                                !- X,Y,Z Vertex 1 {m}
  0, 0, 0,                                !- X,Y,Z Vertex 2 {m}
  3, 3, 0,                                !- X,Y,Z Vertex 3 {m}
  3, 3, 4;                                !- X,Y,Z Vertex 4 {m}

OS:Surface,
  {b0d40381-f44f-4db5-b0ab-7b26121b2831}, !- Handle
  Surface 6,                              !- Name
  RoofCeiling,                            !- Surface Type
  ,                                       !- Construction Name
  {423dc8e5-1dc3-4b11-91c7-bccb888d00d2}, !- Space Name
  Surface,                                !- Outside Boundary Condition
  {d8025fdf-3ff7-4011-8eb7-9f9ca00cfc64}, !- Outside Boundary Condition Object
  NoSun,                                  !- Sun Exposure
  NoWind,                                 !- Wind Exposure
  ,                                       !- View Factor to Ground
  ,                                       !- Number of Vertices
  3, 3, 4,                                !- X,Y,Z Vertex 1 {m}
  3, 47, 4,                               !- X,Y,Z Vertex 2 {m}
  0, 50, 4,                               !- X,Y,Z Vertex 3 {m}
  0, 0, 4;                                !- X,Y,Z Vertex 4 {m}

OS:Space,
  {4d5f530d-9da0-4983-b5c8-73a529754dd7}, !- Handle
  Story 1 North Perimeter Space,          !- Name
  ,                                       !- Space Type Name
  ,                                       !- Default Construction Set Name
  ,                                       !- Default Schedule Set Name
  -0,                                     !- Direction of Relative North {deg}
  3,                                      !- X Origin {m}
  47,                                     !- Y Origin {m}
  0,                                      !- Z Origin {m}
  {01e82ab9-d8bc-47bd-b4a0-06564d6e9965}, !- Building Story Name
  {375392e7-91a6-4350-8019-3d5461f9ba96}; !- Thermal Zone Name

OS:Surface,
  {b70133eb-8f20-4a29-aebb-4924faded845}, !- Handle
  Surface 7,                              !- Name
  Floor,                                  !- Surface Type
  {b9c073d3-756e-4a30-9265-6c892e58f6dd}, !- Construction Name
  {4d5f530d-9da0-4983-b5c8-73a529754dd7}, !- Space Name
  Foundation,                             !- Outside Boundary Condition
  {fd14e13b-94ff-40df-9f46-4d1d50a1dd76}, !- Outside Boundary Condition Object
  NoSun,                                  !- Sun Exposure
  NoWind,                                 !- Wind Exposure
  ,                                       !- View Factor to Ground
  ,                                       !- Number of Vertices
  -3, 3, 0,                               !- X,Y,Z Vertex 1 {m}
  97, 3, 0,                               !- X,Y,Z Vertex 2 {m}
  94, 0, 0,                               !- X,Y,Z Vertex 3 {m}
  0, 0, 0;                                !- X,Y,Z Vertex 4 {m}

OS:Surface,
  {ff560892-a786-4f36-bf94-d6abf33ff679}, !- Handle
  Surface 8,                              !- Name
  Wall,                                   !- Surface Type
  ,                                       !- Construction Name
  {4d5f530d-9da0-4983-b5c8-73a529754dd7}, !- Space Name
  Outdoors,                               !- Outside Boundary Condition
  ,                                       !- Outside Boundary Condition Object
  SunExposed,                             !- Sun Exposure
  WindExposed,                            !- Wind Exposure
  ,                                       !- View Factor to Ground
  ,                                       !- Number of Vertices
  97, 3, 4,                               !- X,Y,Z Vertex 1 {m}
  97, 3, 0,                               !- X,Y,Z Vertex 2 {m}
  -3, 3, 0,                               !- X,Y,Z Vertex 3 {m}
  -3, 3, 4;                               !- X,Y,Z Vertex 4 {m}

OS:Surface,
  {a8bc4659-1a04-4dfb-b0a5-b1be7b47a184}, !- Handle
  Surface 9,                              !- Name
  Wall,                                   !- Surface Type
  ,                                       !- Construction Name
  {4d5f530d-9da0-4983-b5c8-73a529754dd7}, !- Space Name
  Surface,                                !- Outside Boundary Condition
  {4ab10a76-e55e-4e41-87a5-57e5cf72fc9b}, !- Outside Boundary Condition Object
  NoSun,                                  !- Sun Exposure
  NoWind,                                 !- Wind Exposure
  ,                                       !- View Factor to Ground
  ,                                       !- Number of Vertices
  94, 0, 4,                               !- X,Y,Z Vertex 1 {m}
  94, 0, 0,                               !- X,Y,Z Vertex 2 {m}
  97, 3, 0,                               !- X,Y,Z Vertex 3 {m}
  97, 3, 4;                               !- X,Y,Z Vertex 4 {m}

OS:Surface,
  {ed126fcd-79a0-4612-83c7-057306a3ddd5}, !- Handle
  Surface 10,                             !- Name
  Wall,                                   !- Surface Type
  ,                                       !- Construction Name
  {4d5f530d-9da0-4983-b5c8-73a529754dd7}, !- Space Name
  Surface,                                !- Outside Boundary Condition
  {6828e4f7-43ac-4092-9e4d-876f2d0e6e1e}, !- Outside Boundary Condition Object
  NoSun,                                  !- Sun Exposure
  NoWind,                                 !- Wind Exposure
  ,                                       !- View Factor to Ground
  ,                                       !- Number of Vertices
  0, 0, 4,                                !- X,Y,Z Vertex 1 {m}
  0, 0, 0,                                !- X,Y,Z Vertex 2 {m}
  94, 0, 0,                               !- X,Y,Z Vertex 3 {m}
  94, 0, 4;                               !- X,Y,Z Vertex 4 {m}

OS:Surface,
  {133abdd8-af5c-47af-ba1d-f03f9ab9eb3e}, !- Handle
  Surface 11,                             !- Name
  Wall,                                   !- Surface Type
  ,                                       !- Construction Name
  {4d5f530d-9da0-4983-b5c8-73a529754dd7}, !- Space Name
  Surface,                                !- Outside Boundary Condition
  {f235e90c-d5c8-40f8-9e2c-5b02b7641d82}, !- Outside Boundary Condition Object
  NoSun,                                  !- Sun Exposure
  NoWind,                                 !- Wind Exposure
  ,                                       !- View Factor to Ground
  ,                                       !- Number of Vertices
  -3, 3, 4,                               !- X,Y,Z Vertex 1 {m}
  -3, 3, 0,                               !- X,Y,Z Vertex 2 {m}
  0, 0, 0,                                !- X,Y,Z Vertex 3 {m}
  0, 0, 4;                                !- X,Y,Z Vertex 4 {m}

OS:Surface,
  {a26bf4f8-39f0-409c-9146-5aba1aa264fa}, !- Handle
  Surface 12,                             !- Name
  RoofCeiling,                            !- Surface Type
  ,                                       !- Construction Name
  {4d5f530d-9da0-4983-b5c8-73a529754dd7}, !- Space Name
  Surface,                                !- Outside Boundary Condition
  {07b1c5c2-d2ff-4859-b07d-acd1ea44d0d5}, !- Outside Boundary Condition Object
  NoSun,                                  !- Sun Exposure
  NoWind,                                 !- Wind Exposure
  ,                                       !- View Factor to Ground
  ,                                       !- Number of Vertices
  0, 0, 4,                                !- X,Y,Z Vertex 1 {m}
  94, 0, 4,                               !- X,Y,Z Vertex 2 {m}
  97, 3, 4,                               !- X,Y,Z Vertex 3 {m}
  -3, 3, 4;                               !- X,Y,Z Vertex 4 {m}

OS:Space,
  {3a5aa6ac-4281-4e03-9dc6-0aeee3f0e7a3}, !- Handle
  Story 1 East Perimeter Space,           !- Name
  ,                                       !- Space Type Name
  ,                                       !- Default Construction Set Name
  ,                                       !- Default Schedule Set Name
  -0,                                     !- Direction of Relative North {deg}
  97,                                     !- X Origin {m}
  3,                                      !- Y Origin {m}
  0,                                      !- Z Origin {m}
  {01e82ab9-d8bc-47bd-b4a0-06564d6e9965}, !- Building Story Name
  {da5e76ae-0a51-4cbe-b818-376c8fc69d8d}; !- Thermal Zone Name

OS:Surface,
  {bb94110a-6a51-4e76-82e3-43bb2f761f2e}, !- Handle
  Surface 13,                             !- Name
  Floor,                                  !- Surface Type
  {b9c073d3-756e-4a30-9265-6c892e58f6dd}, !- Construction Name
  {3a5aa6ac-4281-4e03-9dc6-0aeee3f0e7a3}, !- Space Name
  Foundation,                             !- Outside Boundary Condition
  {fd14e13b-94ff-40df-9f46-4d1d50a1dd76}, !- Outside Boundary Condition Object
  NoSun,                                  !- Sun Exposure
  NoWind,                                 !- Wind Exposure
  ,                                       !- View Factor to Ground
  ,                                       !- Number of Vertices
  3, 47, 0,                               !- X,Y,Z Vertex 1 {m}
  3, -3, 0,                               !- X,Y,Z Vertex 2 {m}
  0, 0, 0,                                !- X,Y,Z Vertex 3 {m}
  0, 44, 0;                               !- X,Y,Z Vertex 4 {m}

OS:Surface,
  {a5b67adb-b029-4bc5-9d9b-4de5f47637c6}, !- Handle
  Surface 14,                             !- Name
  Wall,                                   !- Surface Type
  ,                                       !- Construction Name
  {3a5aa6ac-4281-4e03-9dc6-0aeee3f0e7a3}, !- Space Name
  Outdoors,                               !- Outside Boundary Condition
  ,                                       !- Outside Boundary Condition Object
  SunExposed,                             !- Sun Exposure
  WindExposed,                            !- Wind Exposure
  ,                                       !- View Factor to Ground
  ,                                       !- Number of Vertices
  3, -3, 4,                               !- X,Y,Z Vertex 1 {m}
  3, -3, 0,                               !- X,Y,Z Vertex 2 {m}
  3, 47, 0,                               !- X,Y,Z Vertex 3 {m}
  3, 47, 4;                               !- X,Y,Z Vertex 4 {m}

OS:Surface,
  {11534da0-4464-4c97-a509-27d8698f37dc}, !- Handle
  Surface 15,                             !- Name
  Wall,                                   !- Surface Type
  ,                                       !- Construction Name
  {3a5aa6ac-4281-4e03-9dc6-0aeee3f0e7a3}, !- Space Name
  Surface,                                !- Outside Boundary Condition
  {f46ae6a5-9374-4fd5-b22c-3a56ce290624}, !- Outside Boundary Condition Object
  NoSun,                                  !- Sun Exposure
  NoWind,                                 !- Wind Exposure
  ,                                       !- View Factor to Ground
  ,                                       !- Number of Vertices
  0, 0, 4,                                !- X,Y,Z Vertex 1 {m}
  0, 0, 0,                                !- X,Y,Z Vertex 2 {m}
  3, -3, 0,                               !- X,Y,Z Vertex 3 {m}
  3, -3, 4;                               !- X,Y,Z Vertex 4 {m}

OS:Surface,
  {bcc00c3f-639c-48b6-ae2d-3ce756c6a15e}, !- Handle
  Surface 16,                             !- Name
  Wall,                                   !- Surface Type
  ,                                       !- Construction Name
  {3a5aa6ac-4281-4e03-9dc6-0aeee3f0e7a3}, !- Space Name
  Surface,                                !- Outside Boundary Condition
  {3a5188c3-15d8-40fb-a38b-e0951c163d7a}, !- Outside Boundary Condition Object
  NoSun,                                  !- Sun Exposure
  NoWind,                                 !- Wind Exposure
  ,                                       !- View Factor to Ground
  ,                                       !- Number of Vertices
  0, 44, 4,                               !- X,Y,Z Vertex 1 {m}
  0, 44, 0,                               !- X,Y,Z Vertex 2 {m}
  0, 0, 0,                                !- X,Y,Z Vertex 3 {m}
  0, 0, 4;                                !- X,Y,Z Vertex 4 {m}

OS:Surface,
  {4ab10a76-e55e-4e41-87a5-57e5cf72fc9b}, !- Handle
  Surface 17,                             !- Name
  Wall,                                   !- Surface Type
  ,                                       !- Construction Name
  {3a5aa6ac-4281-4e03-9dc6-0aeee3f0e7a3}, !- Space Name
  Surface,                                !- Outside Boundary Condition
  {a8bc4659-1a04-4dfb-b0a5-b1be7b47a184}, !- Outside Boundary Condition Object
  NoSun,                                  !- Sun Exposure
  NoWind,                                 !- Wind Exposure
  ,                                       !- View Factor to Ground
  ,                                       !- Number of Vertices
  3, 47, 4,                               !- X,Y,Z Vertex 1 {m}
  3, 47, 0,                               !- X,Y,Z Vertex 2 {m}
  0, 44, 0,                               !- X,Y,Z Vertex 3 {m}
  0, 44, 4;                               !- X,Y,Z Vertex 4 {m}

OS:Surface,
  {cb8d866f-9e8a-484c-85fa-66baf07118cd}, !- Handle
  Surface 18,                             !- Name
  RoofCeiling,                            !- Surface Type
  ,                                       !- Construction Name
  {3a5aa6ac-4281-4e03-9dc6-0aeee3f0e7a3}, !- Space Name
  Surface,                                !- Outside Boundary Condition
  {77b90b2f-9d96-4852-a2b3-ff5c18777f38}, !- Outside Boundary Condition Object
  NoSun,                                  !- Sun Exposure
  NoWind,                                 !- Wind Exposure
  ,                                       !- View Factor to Ground
  ,                                       !- Number of Vertices
  0, 44, 4,                               !- X,Y,Z Vertex 1 {m}
  0, 0, 4,                                !- X,Y,Z Vertex 2 {m}
  3, -3, 4,                               !- X,Y,Z Vertex 3 {m}
  3, 47, 4;                               !- X,Y,Z Vertex 4 {m}

OS:Space,
  {ed7f545d-f200-480a-b7ba-f9e8c9011c2a}, !- Handle
  Story 1 South Perimeter Space,          !- Name
  ,                                       !- Space Type Name
  ,                                       !- Default Construction Set Name
  ,                                       !- Default Schedule Set Name
  -0,                                     !- Direction of Relative North {deg}
  0,                                      !- X Origin {m}
  0,                                      !- Y Origin {m}
  0,                                      !- Z Origin {m}
  {01e82ab9-d8bc-47bd-b4a0-06564d6e9965}, !- Building Story Name
  {64425c8e-cf82-41c6-bb59-d308a7ef1eaf}; !- Thermal Zone Name

OS:Surface,
  {f62a6d9c-c04e-4015-9e15-2df0cb50d2d6}, !- Handle
  Surface 19,                             !- Name
  Floor,                                  !- Surface Type
  {b9c073d3-756e-4a30-9265-6c892e58f6dd}, !- Construction Name
  {ed7f545d-f200-480a-b7ba-f9e8c9011c2a}, !- Space Name
  Foundation,                             !- Outside Boundary Condition
  {fd14e13b-94ff-40df-9f46-4d1d50a1dd76}, !- Outside Boundary Condition Object
  NoSun,                                  !- Sun Exposure
  NoWind,                                 !- Wind Exposure
  ,                                       !- View Factor to Ground
  ,                                       !- Number of Vertices
  100, 0, 0,                              !- X,Y,Z Vertex 1 {m}
  0, 0, 0,                                !- X,Y,Z Vertex 2 {m}
  3, 3, 0,                                !- X,Y,Z Vertex 3 {m}
  97, 3, 0;                               !- X,Y,Z Vertex 4 {m}

OS:Surface,
  {4cf4927a-d526-46af-a41d-7e8da104f62b}, !- Handle
  Surface 20,                             !- Name
  Wall,                                   !- Surface Type
  ,                                       !- Construction Name
  {ed7f545d-f200-480a-b7ba-f9e8c9011c2a}, !- Space Name
  Outdoors,                               !- Outside Boundary Condition
  ,                                       !- Outside Boundary Condition Object
  SunExposed,                             !- Sun Exposure
  WindExposed,                            !- Wind Exposure
  ,                                       !- View Factor to Ground
  ,                                       !- Number of Vertices
  0, 0, 4,                                !- X,Y,Z Vertex 1 {m}
  0, 0, 0,                                !- X,Y,Z Vertex 2 {m}
  100, 0, 0,                              !- X,Y,Z Vertex 3 {m}
  100, 0, 4;                              !- X,Y,Z Vertex 4 {m}

OS:Surface,
  {001d9377-483f-48b2-91f4-64d44ca067bb}, !- Handle
  Surface 21,                             !- Name
  Wall,                                   !- Surface Type
  ,                                       !- Construction Name
  {ed7f545d-f200-480a-b7ba-f9e8c9011c2a}, !- Space Name
  Surface,                                !- Outside Boundary Condition
  {cd98bfd9-12ff-412f-9cf8-39b7b92fd09f}, !- Outside Boundary Condition Object
  NoSun,                                  !- Sun Exposure
  NoWind,                                 !- Wind Exposure
  ,                                       !- View Factor to Ground
  ,                                       !- Number of Vertices
  3, 3, 4,                                !- X,Y,Z Vertex 1 {m}
  3, 3, 0,                                !- X,Y,Z Vertex 2 {m}
  0, 0, 0,                                !- X,Y,Z Vertex 3 {m}
  0, 0, 4;                                !- X,Y,Z Vertex 4 {m}

OS:Surface,
  {8aac354a-4cfc-4815-af0a-a45ba059d02a}, !- Handle
  Surface 22,                             !- Name
  Wall,                                   !- Surface Type
  ,                                       !- Construction Name
  {ed7f545d-f200-480a-b7ba-f9e8c9011c2a}, !- Space Name
  Surface,                                !- Outside Boundary Condition
  {d506d5c0-ee0f-43ef-8564-8c0bab9adb21}, !- Outside Boundary Condition Object
  NoSun,                                  !- Sun Exposure
  NoWind,                                 !- Wind Exposure
  ,                                       !- View Factor to Ground
  ,                                       !- Number of Vertices
  97, 3, 4,                               !- X,Y,Z Vertex 1 {m}
  97, 3, 0,                               !- X,Y,Z Vertex 2 {m}
  3, 3, 0,                                !- X,Y,Z Vertex 3 {m}
  3, 3, 4;                                !- X,Y,Z Vertex 4 {m}

OS:Surface,
  {f46ae6a5-9374-4fd5-b22c-3a56ce290624}, !- Handle
  Surface 23,                             !- Name
  Wall,                                   !- Surface Type
  ,                                       !- Construction Name
  {ed7f545d-f200-480a-b7ba-f9e8c9011c2a}, !- Space Name
  Surface,                                !- Outside Boundary Condition
  {11534da0-4464-4c97-a509-27d8698f37dc}, !- Outside Boundary Condition Object
  NoSun,                                  !- Sun Exposure
  NoWind,                                 !- Wind Exposure
  ,                                       !- View Factor to Ground
  ,                                       !- Number of Vertices
  100, 0, 4,                              !- X,Y,Z Vertex 1 {m}
  100, 0, 0,                              !- X,Y,Z Vertex 2 {m}
  97, 3, 0,                               !- X,Y,Z Vertex 3 {m}
  97, 3, 4;                               !- X,Y,Z Vertex 4 {m}

OS:Surface,
  {c6e325ec-3f8f-4cd8-9fb0-e1fafa79c60c}, !- Handle
  Surface 24,                             !- Name
  RoofCeiling,                            !- Surface Type
  ,                                       !- Construction Name
  {ed7f545d-f200-480a-b7ba-f9e8c9011c2a}, !- Space Name
  Surface,                                !- Outside Boundary Condition
  {b37616e7-eaf2-49aa-8220-5146ecb61ea1}, !- Outside Boundary Condition Object
  NoSun,                                  !- Sun Exposure
  NoWind,                                 !- Wind Exposure
  ,                                       !- View Factor to Ground
  ,                                       !- Number of Vertices
  97, 3, 4,                               !- X,Y,Z Vertex 1 {m}
  3, 3, 4,                                !- X,Y,Z Vertex 2 {m}
  0, 0, 4,                                !- X,Y,Z Vertex 3 {m}
  100, 0, 4;                              !- X,Y,Z Vertex 4 {m}

OS:Space,
  {dbd38492-c6b1-4e16-95e9-73f7118174bf}, !- Handle
  Story 1 Core Space,                     !- Name
  ,                                       !- Space Type Name
  ,                                       !- Default Construction Set Name
  ,                                       !- Default Schedule Set Name
  -0,                                     !- Direction of Relative North {deg}
  3,                                      !- X Origin {m}
  3,                                      !- Y Origin {m}
  0,                                      !- Z Origin {m}
  {01e82ab9-d8bc-47bd-b4a0-06564d6e9965}, !- Building Story Name
  {6695d817-031a-4248-9d44-9bd60af43813}; !- Thermal Zone Name

OS:Surface,
  {c1e87656-a769-4438-ab88-0cc90c220ce0}, !- Handle
  Surface 25,                             !- Name
  Floor,                                  !- Surface Type
  {b9c073d3-756e-4a30-9265-6c892e58f6dd}, !- Construction Name
  {dbd38492-c6b1-4e16-95e9-73f7118174bf}, !- Space Name
  Foundation,                             !- Outside Boundary Condition
  {fd14e13b-94ff-40df-9f46-4d1d50a1dd76}, !- Outside Boundary Condition Object
  NoSun,                                  !- Sun Exposure
  NoWind,                                 !- Wind Exposure
  ,                                       !- View Factor to Ground
  ,                                       !- Number of Vertices
  0, 0, 0,                                !- X,Y,Z Vertex 1 {m}
  0, 44, 0,                               !- X,Y,Z Vertex 2 {m}
  94, 44, 0,                              !- X,Y,Z Vertex 3 {m}
  94, 0, 0;                               !- X,Y,Z Vertex 4 {m}

OS:Surface,
  {cfd4ad88-0c13-4cfe-8b7f-4e9d97c511a7}, !- Handle
  Surface 26,                             !- Name
  Wall,                                   !- Surface Type
  ,                                       !- Construction Name
  {dbd38492-c6b1-4e16-95e9-73f7118174bf}, !- Space Name
  Surface,                                !- Outside Boundary Condition
  {70d063d7-5771-4adc-a18f-7ab976aa62d1}, !- Outside Boundary Condition Object
  NoSun,                                  !- Sun Exposure
  NoWind,                                 !- Wind Exposure
  ,                                       !- View Factor to Ground
  ,                                       !- Number of Vertices
  0, 44, 4,                               !- X,Y,Z Vertex 1 {m}
  0, 44, 0,                               !- X,Y,Z Vertex 2 {m}
  0, 0, 0,                                !- X,Y,Z Vertex 3 {m}
  0, 0, 4;                                !- X,Y,Z Vertex 4 {m}

OS:Surface,
  {6828e4f7-43ac-4092-9e4d-876f2d0e6e1e}, !- Handle
  Surface 27,                             !- Name
  Wall,                                   !- Surface Type
  ,                                       !- Construction Name
  {dbd38492-c6b1-4e16-95e9-73f7118174bf}, !- Space Name
  Surface,                                !- Outside Boundary Condition
  {ed126fcd-79a0-4612-83c7-057306a3ddd5}, !- Outside Boundary Condition Object
  NoSun,                                  !- Sun Exposure
  NoWind,                                 !- Wind Exposure
  ,                                       !- View Factor to Ground
  ,                                       !- Number of Vertices
  94, 44, 4,                              !- X,Y,Z Vertex 1 {m}
  94, 44, 0,                              !- X,Y,Z Vertex 2 {m}
  0, 44, 0,                               !- X,Y,Z Vertex 3 {m}
  0, 44, 4;                               !- X,Y,Z Vertex 4 {m}

OS:Surface,
  {3a5188c3-15d8-40fb-a38b-e0951c163d7a}, !- Handle
  Surface 28,                             !- Name
  Wall,                                   !- Surface Type
  ,                                       !- Construction Name
  {dbd38492-c6b1-4e16-95e9-73f7118174bf}, !- Space Name