
OS:Version,
  {d3895c01-4f7e-4547-812d-10aca37214ba}, !- Handle
  2.3.0;                                  !- Version Identifier

OS:BuildingStory,
  {9c353dfe-4c64-4bb9-b99f-a859b45c5ee1}, !- Handle
  Story 1,                                !- Name
  0,                                      !- Nominal Z Coordinate {m}
  4,                                      !- Nominal Floor to Floor Height {m}
  ,                                       !- Default Construction Set Name
  ,                                       !- Default Schedule Set Name
  ;                                       !- Group Rendering Name

OS:Space,
  {fd9aab0e-0750-4a3c-8840-dc3e61c940ef}, !- Handle
  Story 1 West Perimeter Space,           !- Name
  ,                                       !- Space Type Name
  ,                                       !- Default Construction Set Name
  ,                                       !- Default Schedule Set Name
  -0,                                     !- Direction of Relative North {deg}
  0,                                      !- X Origin {m}
  0,                                      !- Y Origin {m}
  0,                                      !- Z Origin {m}
  {9c353dfe-4c64-4bb9-b99f-a859b45c5ee1}, !- Building Story Name
  {35a2bb36-f56e-4731-a27e-efc2d1e4cbb2}; !- Thermal Zone Name

OS:Surface,
  {67c6be21-d9a6-4a48-b945-79371b934413}, !- Handle
  Surface 1,                              !- Name
  Floor,                                  !- Surface Type
  {ef09b692-6006-492f-b549-b73264a7e1f0}, !- Construction Name
  {fd9aab0e-0750-4a3c-8840-dc3e61c940ef}, !- Space Name
  Foundation,                             !- Outside Boundary Condition
  {a0ed2bac-3b16-411c-8b5c-8299c2863895}, !- Outside Boundary Condition Object
  NoSun,                                  !- Sun Exposure
  NoWind,                                 !- Wind Exposure
  ,                                       !- View Factor to Ground
  ,                                       !- Number of Vertices
  0, 0, 0,                                !- X,Y,Z Vertex 1 {m}
  0, 50, 0,                               !- X,Y,Z Vertex 2 {m}
  3, 47, 0,                               !- X,Y,Z Vertex 3 {m}
  3, 3, 0;                                !- X,Y,Z Vertex 4 {m}

OS:Surface,
  {6cb75b4d-ab1f-445e-9da7-5357d676890b}, !- Handle
  Surface 2,                              !- Name
  Wall,                                   !- Surface Type
  ,                                       !- Construction Name
  {fd9aab0e-0750-4a3c-8840-dc3e61c940ef}, !- Space Name
  Outdoors,                               !- Outside Boundary Condition
  ,                                       !- Outside Boundary Condition Object
  SunExposed,                             !- Sun Exposure
  WindExposed,                            !- Wind Exposure
  ,                                       !- View Factor to Ground
  ,                                       !- Number of Vertices
  0, 50, 4,                               !- X,Y,Z Vertex 1 {m}
  0, 50, 0,                               !- X,Y,Z Vertex 2 {m}
  0, 0, 0,                                !- X,Y,Z Vertex 3 {m}
  0, 0, 4;                                !- X,Y,Z Vertex 4 {m}

OS:Surface,
  {7163bc47-00a3-4833-8930-badd436e6e09}, !- Handle
  Surface 3,                              !- Name
  Wall,                                   !- Surface Type
  ,                                       !- Construction Name
  {fd9aab0e-0750-4a3c-8840-dc3e61c940ef}, !- Space Name
  Surface,                                !- Outside Boundary Condition
  {3205cd9d-84e1-49b2-af21-787f9de23e10}, !- Outside Boundary Condition Object
  NoSun,                                  !- Sun Exposure
  NoWind,                                 !- Wind Exposure
  ,                                       !- View Factor to Ground
  ,                                       !- Number of Vertices
  3, 47, 4,                               !- X,Y,Z Vertex 1 {m}
  3, 47, 0,                               !- X,Y,Z Vertex 2 {m}
  0, 50, 0,                               !- X,Y,Z Vertex 3 {m}
  0, 50, 4;                               !- X,Y,Z Vertex 4 {m}

OS:Surface,
  {580aba87-0165-4df2-8623-78c9605ce8e9}, !- Handle
  Surface 4,                              !- Name
  Wall,                                   !- Surface Type
  ,                                       !- Construction Name
  {fd9aab0e-0750-4a3c-8840-dc3e61c940ef}, !- Space Name
  Surface,                                !- Outside Boundary Condition
  {e192d84f-fada-4ff1-95e4-5d19ed42ab1f}, !- Outside Boundary Condition Object
  NoSun,                                  !- Sun Exposure
  NoWind,                                 !- Wind Exposure
  ,                                       !- View Factor to Ground
  ,                                       !- Number of Vertices
  3, 3, 4,                                !- X,Y,Z Vertex 1 {m}
  3, 3, 0,                                !- X,Y,Z Vertex 2 {m}
  3, 47, 0,                               !- X,Y,Z Vertex 3 {m}
  3, 47, 4;                               !- X,Y,Z Vertex 4 {m}

OS:Surface,
  {10e895ec-0c12-436b-82f4-056dac60c453}, !- Handle
  Surface 5,                              !- Name
  Wall,                                   !- Surface Type
  ,                                       !- Construction Name
  {fd9aab0e-0750-4a3c-8840-dc3e61c940ef}, !- Space Name
  Surface,                                !- Outside Boundary Condition
  {1c02c4bd-8d5a-451d-bc98-1da7717a7388}, !- Outside Boundary Condition Object
  NoSun,                                  !- Sun Exposure
  NoWind,                                 !- Wind Exposure
  ,                                       !- View Factor to Ground
  ,                                       !- Number of Vertices
  0, 0, 4,                                !- X,Y,Z Vertex 1 {m}
  0, 0, 0,                                !- X,Y,Z Vertex 2 {m}
  3, 3, 0,                                !- X,Y,Z Vertex 3 {m}
  3, 3, 4;                                !- X,Y,Z Vertex 4 {m}

OS:Surface,
  {1fe13126-d610-45b0-94bb-00e1d71dd176}, !- Handle
  Surface 6,                              !- Name
  RoofCeiling,                            !- Surface Type
  ,                                       !- Construction Name
  {fd9aab0e-0750-4a3c-8840-dc3e61c940ef}, !- Space Name
  Surface,                                !- Outside Boundary Condition
  {4555ee74-d65e-4a8f-bfef-38ffedd3d13c}, !- Outside Boundary Condition Object
  NoSun,                                  !- Sun Exposure
  NoWind,                                 !- Wind Exposure
  ,                                       !- View Factor to Ground
  ,                                       !- Number of Vertices
  3, 3, 4,                                !- X,Y,Z Vertex 1 {m}
  3, 47, 4,                               !- X,Y,Z Vertex 2 {m}
  0, 50, 4,                               !- X,Y,Z Vertex 3 {m}
  0, 0, 4;                                !- X,Y,Z Vertex 4 {m}

OS:Space,
  {cd30c737-257d-412a-adfa-73cfe62d5157}, !- Handle
  Story 1 North Perimeter Space,          !- Name
  ,                                       !- Space Type Name
  ,                                       !- Default Construction Set Name
  ,                                       !- Default Schedule Set Name
  -0,                                     !- Direction of Relative North {deg}
  3,                                      !- X Origin {m}
  47,                                     !- Y Origin {m}
  0,                                      !- Z Origin {m}
  {9c353dfe-4c64-4bb9-b99f-a859b45c5ee1}, !- Building Story Name
  {0b6612c5-bd4e-447b-871c-8a552eb2b26a}; !- Thermal Zone Name

OS:Surface,
  {448479b3-0cf5-42c8-9b2f-d4b5b138d4d3}, !- Handle
  Surface 7,                              !- Name
  Floor,                                  !- Surface Type
  {ef09b692-6006-492f-b549-b73264a7e1f0}, !- Construction Name
  {cd30c737-257d-412a-adfa-73cfe62d5157}, !- Space Name
  Foundation,                             !- Outside Boundary Condition
  {a0ed2bac-3b16-411c-8b5c-8299c2863895}, !- Outside Boundary Condition Object
  NoSun,                                  !- Sun Exposure
  NoWind,                                 !- Wind Exposure
  ,                                       !- View Factor to Ground
  ,                                       !- Number of Vertices
  -3, 3, 0,                               !- X,Y,Z Vertex 1 {m}
  97, 3, 0,                               !- X,Y,Z Vertex 2 {m}
  94, 0, 0,                               !- X,Y,Z Vertex 3 {m}
  0, 0, 0;                                !- X,Y,Z Vertex 4 {m}

OS:Surface,
  {ceaaff1f-cf34-4a9e-bcdd-de727f113365}, !- Handle
  Surface 8,                              !- Name
  Wall,                                   !- Surface Type
  ,                                       !- Construction Name
  {cd30c737-257d-412a-adfa-73cfe62d5157}, !- Space Name
  Outdoors,                               !- Outside Boundary Condition
  ,                                       !- Outside Boundary Condition Object
  SunExposed,                             !- Sun Exposure
  WindExposed,                            !- Wind Exposure
  ,                                       !- View Factor to Ground
  ,                                       !- Number of Vertices
  97, 3, 4,                               !- X,Y,Z Vertex 1 {m}
  97, 3, 0,                               !- X,Y,Z Vertex 2 {m}
  -3, 3, 0,                               !- X,Y,Z Vertex 3 {m}
  -3, 3, 4;                               !- X,Y,Z Vertex 4 {m}

OS:Surface,
  {db84f26c-df23-458f-aefe-1effd0fd0bff}, !- Handle
  Surface 9,                              !- Name
  Wall,                                   !- Surface Type
  ,                                       !- Construction Name
  {cd30c737-257d-412a-adfa-73cfe62d5157}, !- Space Name
  Surface,                                !- Outside Boundary Condition
  {160255ad-a2b0-44b9-941b-eeb96011e0c4}, !- Outside Boundary Condition Object
  NoSun,                                  !- Sun Exposure
  NoWind,                                 !- Wind Exposure
  ,                                       !- View Factor to Ground
  ,                                       !- Number of Vertices
  94, 0, 4,                               !- X,Y,Z Vertex 1 {m}
  94, 0, 0,                               !- X,Y,Z Vertex 2 {m}
  97, 3, 0,                               !- X,Y,Z Vertex 3 {m}
  97, 3, 4;                               !- X,Y,Z Vertex 4 {m}

OS:Surface,
  {46f841d9-af9a-48de-9bcd-fcb972aa409d}, !- Handle
  Surface 10,                             !- Name
  Wall,                                   !- Surface Type
  ,                                       !- Construction Name
  {cd30c737-257d-412a-adfa-73cfe62d5157}, !- Space Name
  Surface,                                !- Outside Boundary Condition
  {64fad295-e16e-42e2-ab20-c8bf0d961d56}, !- Outside Boundary Condition Object
  NoSun,                                  !- Sun Exposure
  NoWind,                                 !- Wind Exposure
  ,                                       !- View Factor to Ground
  ,                                       !- Number of Vertices
  0, 0, 4,                                !- X,Y,Z Vertex 1 {m}
  0, 0, 0,                                !- X,Y,Z Vertex 2 {m}
  94, 0, 0,                               !- X,Y,Z Vertex 3 {m}
  94, 0, 4;                               !- X,Y,Z Vertex 4 {m}

OS:Surface,
  {3205cd9d-84e1-49b2-af21-787f9de23e10}, !- Handle
  Surface 11,                             !- Name
  Wall,                                   !- Surface Type
  ,                                       !- Construction Name
  {cd30c737-257d-412a-adfa-73cfe62d5157}, !- Space Name
  Surface,                                !- Outside Boundary Condition
  {7163bc47-00a3-4833-8930-badd436e6e09}, !- Outside Boundary Condition Object
  NoSun,                                  !- Sun Exposure
  NoWind,                                 !- Wind Exposure
  ,                                       !- View Factor to Ground
  ,                                       !- Number of Vertices
  -3, 3, 4,                               !- X,Y,Z Vertex 1 {m}
  -3, 3, 0,                               !- X,Y,Z Vertex 2 {m}
  0, 0, 0,                                !- X,Y,Z Vertex 3 {m}
  0, 0, 4;                                !- X,Y,Z Vertex 4 {m}

OS:Surface,
  {327f547c-314b-4ff9-a11c-57499d59d0d8}, !- Handle
  Surface 12,                             !- Name
  RoofCeiling,                            !- Surface Type
  ,                                       !- Construction Name
  {cd30c737-257d-412a-adfa-73cfe62d5157}, !- Space Name
  Surface,                                !- Outside Boundary Condition
  {14aff593-a128-4a91-bd48-5f65d89d3983}, !- Outside Boundary Condition Object
  NoSun,                                  !- Sun Exposure
  NoWind,                                 !- Wind Exposure
  ,                                       !- View Factor to Ground
  ,                                       !- Number of Vertices
  0, 0, 4,                                !- X,Y,Z Vertex 1 {m}
  94, 0, 4,                               !- X,Y,Z Vertex 2 {m}
  97, 3, 4,                               !- X,Y,Z Vertex 3 {m}
  -3, 3, 4;                               !- X,Y,Z Vertex 4 {m}

OS:Space,
  {34754409-408b-45fc-ab04-f4732e29b6e4}, !- Handle
  Story 1 East Perimeter Space,           !- Name
  ,                                       !- Space Type Name
  ,                                       !- Default Construction Set Name
  ,                                       !- Default Schedule Set Name
  -0,                                     !- Direction of Relative North {deg}
  97,                                     !- X Origin {m}
  3,                                      !- Y Origin {m}
  0,                                      !- Z Origin {m}
  {9c353dfe-4c64-4bb9-b99f-a859b45c5ee1}, !- Building Story Name
  {e5445a1d-fe0d-446d-b8d7-82cebef4c278}; !- Thermal Zone Name

OS:Surface,
  {ea035105-1465-47b2-b49f-a3a6283e268f}, !- Handle
  Surface 13,                             !- Name
  Floor,                                  !- Surface Type
  {ef09b692-6006-492f-b549-b73264a7e1f0}, !- Construction Name
  {34754409-408b-45fc-ab04-f4732e29b6e4}, !- Space Name
  Foundation,                             !- Outside Boundary Condition
  {a0ed2bac-3b16-411c-8b5c-8299c2863895}, !- Outside Boundary Condition Object
  NoSun,                                  !- Sun Exposure
  NoWind,                                 !- Wind Exposure
  ,                                       !- View Factor to Ground
  ,                                       !- Number of Vertices
  3, 47, 0,                               !- X,Y,Z Vertex 1 {m}
  3, -3, 0,                               !- X,Y,Z Vertex 2 {m}
  0, 0, 0,                                !- X,Y,Z Vertex 3 {m}
  0, 44, 0;                               !- X,Y,Z Vertex 4 {m}

OS:Surface,
  {9dda4faf-9fb6-483a-a847-d49a6490d7c8}, !- Handle
  Surface 14,                             !- Name
  Wall,                                   !- Surface Type
  ,                                       !- Construction Name
  {34754409-408b-45fc-ab04-f4732e29b6e4}, !- Space Name
  Outdoors,                               !- Outside Boundary Condition
  ,                                       !- Outside Boundary Condition Object
  SunExposed,                             !- Sun Exposure
  WindExposed,                            !- Wind Exposure
  ,                                       !- View Factor to Ground
  ,                                       !- Number of Vertices
  3, -3, 4,                               !- X,Y,Z Vertex 1 {m}
  3, -3, 0,                               !- X,Y,Z Vertex 2 {m}
  3, 47, 0,                               !- X,Y,Z Vertex 3 {m}
  3, 47, 4;                               !- X,Y,Z Vertex 4 {m}

OS:Surface,
  {1b5e90fc-44ca-44b7-9206-b70605699808}, !- Handle
  Surface 15,                             !- Name
  Wall,                                   !- Surface Type
  ,                                       !- Construction Name
  {34754409-408b-45fc-ab04-f4732e29b6e4}, !- Space Name
  Surface,                                !- Outside Boundary Condition
  {2d66b505-a1a4-4d25-ac91-c66a4eb2f7c1}, !- Outside Boundary Condition Object
  NoSun,                                  !- Sun Exposure
  NoWind,                                 !- Wind Exposure
  ,                                       !- View Factor to Ground
  ,                                       !- Number of Vertices
  0, 0, 4,                                !- X,Y,Z Vertex 1 {m}
  0, 0, 0,                                !- X,Y,Z Vertex 2 {m}
  3, -3, 0,                               !- X,Y,Z Vertex 3 {m}
  3, -3, 4;                               !- X,Y,Z Vertex 4 {m}

OS:Surface,
  {6e043e89-e31b-4b63-8731-c88595c59d18}, !- Handle
  Surface 16,                             !- Name
  Wall,                                   !- Surface Type
  ,                                       !- Construction Name
  {34754409-408b-45fc-ab04-f4732e29b6e4}, !- Space Name
  Surface,                                !- Outside Boundary Condition
  {a1b93d71-7559-437c-84e0-5c47960043ce}, !- Outside Boundary Condition Object
  NoSun,                                  !- Sun Exposure
  NoWind,                                 !- Wind Exposure
  ,                                       !- View Factor to Ground
  ,                                       !- Number of Vertices
  0, 44, 4,                               !- X,Y,Z Vertex 1 {m}
  0, 44, 0,                               !- X,Y,Z Vertex 2 {m}
  0, 0, 0,                                !- X,Y,Z Vertex 3 {m}
  0, 0, 4;                                !- X,Y,Z Vertex 4 {m}

OS:Surface,
  {160255ad-a2b0-44b9-941b-eeb96011e0c4}, !- Handle
  Surface 17,                             !- Name
  Wall,                                   !- Surface Type
  ,                                       !- Construction Name
  {34754409-408b-45fc-ab04-f4732e29b6e4}, !- Space Name
  Surface,                                !- Outside Boundary Condition
  {db84f26c-df23-458f-aefe-1effd0fd0bff}, !- Outside Boundary Condition Object
  NoSun,                                  !- Sun Exposure
  NoWind,                                 !- Wind Exposure
  ,                                       !- View Factor to Ground
  ,                                       !- Number of Vertices
  3, 47, 4,                               !- X,Y,Z Vertex 1 {m}
  3, 47, 0,                               !- X,Y,Z Vertex 2 {m}
  0, 44, 0,                               !- X,Y,Z Vertex 3 {m}
  0, 44, 4;                               !- X,Y,Z Vertex 4 {m}

OS:Surface,
  {43a4a9b6-89b0-4fe8-bed9-a296fc0da187}, !- Handle
  Surface 18,                             !- Name
  RoofCeiling,                            !- Surface Type
  ,                                       !- Construction Name
  {34754409-408b-45fc-ab04-f4732e29b6e4}, !- Space Name
  Surface,                                !- Outside Boundary Condition
  {3d30c200-5a6c-4272-a924-4b1dabe02cfa}, !- Outside Boundary Condition Object
  NoSun,                                  !- Sun Exposure
  NoWind,                                 !- Wind Exposure
  ,                                       !- View Factor to Ground
  ,                                       !- Number of Vertices
  0, 44, 4,                               !- X,Y,Z Vertex 1 {m}
  0, 0, 4,                                !- X,Y,Z Vertex 2 {m}
  3, -3, 4,                               !- X,Y,Z Vertex 3 {m}
  3, 47, 4;                               !- X,Y,Z Vertex 4 {m}

OS:Space,
  {35dc7eb0-cf09-4221-840c-1c81c6098df5}, !- Handle
  Story 1 South Perimeter Space,          !- Name
  ,                                       !- Space Type Name
  ,                                       !- Default Construction Set Name
  ,                                       !- Default Schedule Set Name
  -0,                                     !- Direction of Relative North {deg}
  0,                                      !- X Origin {m}
  0,                                      !- Y Origin {m}
  0,                                      !- Z Origin {m}
  {9c353dfe-4c64-4bb9-b99f-a859b45c5ee1}, !- Building Story Name
  {91b5c1bf-e817-44b8-bd0e-db06052e8e7e}; !- Thermal Zone Name

OS:Surface,
  {f3ef0e29-6463-4212-b387-4b2a6fe33f6e}, !- Handle
  Surface 19,                             !- Name
  Floor,                                  !- Surface Type
  {ef09b692-6006-492f-b549-b73264a7e1f0}, !- Construction Name
  {35dc7eb0-cf09-4221-840c-1c81c6098df5}, !- Space Name
  Foundation,                             !- Outside Boundary Condition
  {a0ed2bac-3b16-411c-8b5c-8299c2863895}, !- Outside Boundary Condition Object
  NoSun,                                  !- Sun Exposure
  NoWind,                                 !- Wind Exposure
  ,                                       !- View Factor to Ground
  ,                                       !- Number of Vertices
  100, 0, 0,                              !- X,Y,Z Vertex 1 {m}
  0, 0, 0,                                !- X,Y,Z Vertex 2 {m}
  3, 3, 0,                                !- X,Y,Z Vertex 3 {m}
  97, 3, 0;                               !- X,Y,Z Vertex 4 {m}

OS:Surface,
  {40b9b365-3fcd-4758-9f82-d7671171a9e0}, !- Handle
  Surface 20,                             !- Name
  Wall,                                   !- Surface Type
  ,                                       !- Construction Name
  {35dc7eb0-cf09-4221-840c-1c81c6098df5}, !- Space Name
  Outdoors,                               !- Outside Boundary Condition
  ,                                       !- Outside Boundary Condition Object
  SunExposed,                             !- Sun Exposure
  WindExposed,                            !- Wind Exposure
  ,                                       !- View Factor to Ground
  ,                                       !- Number of Vertices
  0, 0, 4,                                !- X,Y,Z Vertex 1 {m}
  0, 0, 0,                                !- X,Y,Z Vertex 2 {m}
  100, 0, 0,                              !- X,Y,Z Vertex 3 {m}
  100, 0, 4;                              !- X,Y,Z Vertex 4 {m}

OS:Surface,
  {1c02c4bd-8d5a-451d-bc98-1da7717a7388}, !- Handle
  Surface 21,                             !- Name
  Wall,                                   !- Surface Type
  ,                                       !- Construction Name
  {35dc7eb0-cf09-4221-840c-1c81c6098df5}, !- Space Name
  Surface,                                !- Outside Boundary Condition
  {10e895ec-0c12-436b-82f4-056dac60c453}, !- Outside Boundary Condition Object
  NoSun,                                  !- Sun Exposure
  NoWind,                                 !- Wind Exposure
  ,                                       !- View Factor to Ground
  ,                                       !- Number of Vertices
  3, 3, 4,                                !- X,Y,Z Vertex 1 {m}
  3, 3, 0,                                !- X,Y,Z Vertex 2 {m}
  0, 0, 0,                                !- X,Y,Z Vertex 3 {m}
  0, 0, 4;                                !- X,Y,Z Vertex 4 {m}

OS:Surface,
  {67e1b16d-d223-4303-8622-9895521d00bc}, !- Handle
  Surface 22,                             !- Name
  Wall,                                   !- Surface Type
  ,                                       !- Construction Name
  {35dc7eb0-cf09-4221-840c-1c81c6098df5}, !- Space Name
  Surface,                                !- Outside Boundary Condition
  {ec26190c-9603-46a4-8a66-fcd0bb9963e0}, !- Outside Boundary Condition Object
  NoSun,                                  !- Sun Exposure
  NoWind,                                 !- Wind Exposure
  ,                                       !- View Factor to Ground
  ,                                       !- Number of Vertices
  97, 3, 4,                               !- X,Y,Z Vertex 1 {m}
  97, 3, 0,                               !- X,Y,Z Vertex 2 {m}
  3, 3, 0,                                !- X,Y,Z Vertex 3 {m}
  3, 3, 4;                                !- X,Y,Z Vertex 4 {m}

OS:Surface,
  {2d66b505-a1a4-4d25-ac91-c66a4eb2f7c1}, !- Handle
  Surface 23,                             !- Name
  Wall,                                   !- Surface Type
  ,                                       !- Construction Name
  {35dc7eb0-cf09-4221-840c-1c81c6098df5}, !- Space Name
  Surface,                                !- Outside Boundary Condition
  {1b5e90fc-44ca-44b7-9206-b70605699808}, !- Outside Boundary Condition Object
  NoSun,                                  !- Sun Exposure
  NoWind,                                 !- Wind Exposure
  ,                                       !- View Factor to Ground
  ,                                       !- Number of Vertices
  100, 0, 4,                              !- X,Y,Z Vertex 1 {m}
  100, 0, 0,                              !- X,Y,Z Vertex 2 {m}
  97, 3, 0,                               !- X,Y,Z Vertex 3 {m}
  97, 3, 4;                               !- X,Y,Z Vertex 4 {m}

OS:Surface,
  {47edc03c-e99d-48b4-97f5-9875b5e69efa}, !- Handle
  Surface 24,                             !- Name
  RoofCeiling,                            !- Surface Type
  ,                                       !- Construction Name
  {35dc7eb0-cf09-4221-840c-1c81c6098df5}, !- Space Name
  Surface,                                !- Outside Boundary Condition
  {dad0278a-3a4d-4c64-9371-438184c41048}, !- Outside Boundary Condition Object
  NoSun,                                  !- Sun Exposure
  NoWind,                                 !- Wind Exposure
  ,                                       !- View Factor to Ground
  ,                                       !- Number of Vertices
  97, 3, 4,                               !- X,Y,Z Vertex 1 {m}
  3, 3, 4,                                !- X,Y,Z Vertex 2 {m}
  0, 0, 4,                                !- X,Y,Z Vertex 3 {m}
  100, 0, 4;                              !- X,Y,Z Vertex 4 {m}

OS:Space,
  {29f6ff01-3b04-48e4-ab31-e250d133c1d4}, !- Handle
  Story 1 Core Space,                     !- Name
  ,                                       !- Space Type Name
  ,                                       !- Default Construction Set Name
  ,                                       !- Default Schedule Set Name
  -0,                                     !- Direction of Relative North {deg}
  3,                                      !- X Origin {m}
  3,                                      !- Y Origin {m}
  0,                                      !- Z Origin {m}
  {9c353dfe-4c64-4bb9-b99f-a859b45c5ee1}, !- Building Story Name
  {597ff741-7f58-442d-8c39-df20b6a573d6}; !- Thermal Zone Name

OS:Surface,
  {1284f7a4-0144-4906-b041-bcdc4823b194}, !- Handle
  Surface 25,                             !- Name
  Floor,                                  !- Surface Type
  {ef09b692-6006-492f-b549-b73264a7e1f0}, !- Construction Name
  {29f6ff01-3b04-48e4-ab31-e250d133c1d4}, !- Space Name
  Foundation,                             !- Outside Boundary Condition
  {a0ed2bac-3b16-411c-8b5c-8299c2863895}, !- Outside Boundary Condition Object
  NoSun,                                  !- Sun Exposure
  NoWind,                                 !- Wind Exposure
  ,                                       !- View Factor to Ground
  ,                                       !- Number of Vertices
  0, 0, 0,                                !- X,Y,Z Vertex 1 {m}
  0, 44, 0,                               !- X,Y,Z Vertex 2 {m}
  94, 44, 0,                              !- X,Y,Z Vertex 3 {m}
  94, 0, 0;                               !- X,Y,Z Vertex 4 {m}

OS:Surface,
  {e192d84f-fada-4ff1-95e4-5d19ed42ab1f}, !- Handle
  Surface 26,                             !- Name
  Wall,                                   !- Surface Type
  ,                                       !- Construction Name
  {29f6ff01-3b04-48e4-ab31-e250d133c1d4}, !- Space Name
  Surface,                                !- Outside Boundary Condition
  {580aba87-0165-4df2-8623-78c9605ce8e9}, !- Outside Boundary Condition Object
  NoSun,                                  !- Sun Exposure
  NoWind,                                 !- Wind Exposure
  ,                                       !- View Factor to Ground
  ,                                       !- Number of Vertices
  0, 44, 4,                               !- X,Y,Z Vertex 1 {m}
  0, 44, 0,                               !- X,Y,Z Vertex 2 {m}
  0, 0, 0,                                !- X,Y,Z Vertex 3 {m}
  0, 0, 4;                                !- X,Y,Z Vertex 4 {m}

OS:Surface,
  {64fad295-e16e-42e2-ab20-c8bf0d961d56}, !- Handle
  Surface 27,                             !- Name
  Wall,                                   !- Surface Type
  ,                                       !- Construction Name
  {29f6ff01-3b04-48e4-ab31-e250d133c1d4}, !- Space Name
  Surface,                                !- Outside Boundary Condition
  {46f841d9-af9a-48de-9bcd-fcb972aa409d}, !- Outside Boundary Condition Object
  NoSun,                                  !- Sun Exposure
  NoWind,                                 !- Wind Exposure
  ,                                       !- View Factor to Ground
  ,                                       !- Number of Vertices
  94, 44, 4,                              !- X,Y,Z Vertex 1 {m}
  94, 44, 0,                              !- X,Y,Z Vertex 2 {m}
  0, 44, 0,                               !- X,Y,Z Vertex 3 {m}
  0, 44, 4;                               !- X,Y,Z Vertex 4 {m}

OS:Surface,
  {a1b93d71-7559-437c-84e0-5c47960043ce}, !- Handle
  Surface 28,                             !- Name
  Wall,                                   !- Surface Type
  ,                                       !- Construction Name
  {29f6ff01-3b04-48e4-ab31-e250d133c1d4}, !- Space Name