
OS:Version,
  {f657f779-2445-41e8-8fdf-c79ff9889537}, !- Handle
  2.8.1;                                  !- Version Identifier

OS:BuildingStory,
  {592f577e-4fe5-49bd-97cc-7624e68043ad}, !- Handle
  Story 1,                                !- Name
  0,                                      !- Nominal Z Coordinate {m}
  4,                                      !- Nominal Floor to Floor Height {m}
  ,                                       !- Default Construction Set Name
  ,                                       !- Default Schedule Set Name
  ;                                       !- Group Rendering Name

OS:Space,
  {d6d2d29d-a228-4d7a-8159-45114d861046}, !- Handle
  Story 1 West Perimeter Space,           !- Name
  ,                                       !- Space Type Name
  ,                                       !- Default Construction Set Name
  ,                                       !- Default Schedule Set Name
  -0,                                     !- Direction of Relative North {deg}
  0,                                      !- X Origin {m}
  0,                                      !- Y Origin {m}
  0,                                      !- Z Origin {m}
  {592f577e-4fe5-49bd-97cc-7624e68043ad}, !- Building Story Name
  {cec9025c-97e6-428a-9d5f-6663ea5fc2a2}; !- Thermal Zone Name

OS:Surface,
  {25767376-2e75-4249-acc9-8542f9d40554}, !- Handle
  Surface 1,                              !- Name
  Floor,                                  !- Surface Type
  {d0bb0728-9ad5-446c-b005-a0268124924f}, !- Construction Name
  {d6d2d29d-a228-4d7a-8159-45114d861046}, !- Space Name
  Foundation,                             !- Outside Boundary Condition
  {83e95959-0ffe-401c-ac40-dd9ca470aa04}, !- Outside Boundary Condition Object
  NoSun,                                  !- Sun Exposure
  NoWind,                                 !- Wind Exposure
  ,                                       !- View Factor to Ground
  ,                                       !- Number of Vertices
  0, 0, 0,                                !- X,Y,Z Vertex 1 {m}
  0, 50, 0,                               !- X,Y,Z Vertex 2 {m}
  3, 47, 0,                               !- X,Y,Z Vertex 3 {m}
  3, 3, 0;                                !- X,Y,Z Vertex 4 {m}

OS:Surface,
  {763f2b7b-d913-4600-9dee-86317e5fd8ad}, !- Handle
  Surface 2,                              !- Name
  Wall,                                   !- Surface Type
  ,                                       !- Construction Name
  {d6d2d29d-a228-4d7a-8159-45114d861046}, !- Space Name
  Outdoors,                               !- Outside Boundary Condition
  ,                                       !- Outside Boundary Condition Object
  SunExposed,                             !- Sun Exposure
  WindExposed,                            !- Wind Exposure
  ,                                       !- View Factor to Ground
  ,                                       !- Number of Vertices
  0, 50, 4,                               !- X,Y,Z Vertex 1 {m}
  0, 50, 0,                               !- X,Y,Z Vertex 2 {m}
  0, 0, 0,                                !- X,Y,Z Vertex 3 {m}
  0, 0, 4;                                !- X,Y,Z Vertex 4 {m}

OS:Surface,
  {dcb1d972-c1e4-43f3-ad46-ade3747e0b0e}, !- Handle
  Surface 3,                              !- Name
  Wall,                                   !- Surface Type
  ,                                       !- Construction Name
  {d6d2d29d-a228-4d7a-8159-45114d861046}, !- Space Name
  Surface,                                !- Outside Boundary Condition
  {343303a8-7a89-4e2b-be58-79ef512787dd}, !- Outside Boundary Condition Object
  NoSun,                                  !- Sun Exposure
  NoWind,                                 !- Wind Exposure
  ,                                       !- View Factor to Ground
  ,                                       !- Number of Vertices
  3, 47, 4,                               !- X,Y,Z Vertex 1 {m}
  3, 47, 0,                               !- X,Y,Z Vertex 2 {m}
  0, 50, 0,                               !- X,Y,Z Vertex 3 {m}
  0, 50, 4;                               !- X,Y,Z Vertex 4 {m}

OS:Surface,
  {ea65740d-9647-4857-97ea-a1426053b1af}, !- Handle
  Surface 4,                              !- Name
  Wall,                                   !- Surface Type
  ,                                       !- Construction Name
  {d6d2d29d-a228-4d7a-8159-45114d861046}, !- Space Name
  Surface,                                !- Outside Boundary Condition
  {dad0f725-d370-4309-9848-26aa32d227c7}, !- Outside Boundary Condition Object
  NoSun,                                  !- Sun Exposure
  NoWind,                                 !- Wind Exposure
  ,                                       !- View Factor to Ground
  ,                                       !- Number of Vertices
  3, 3, 4,                                !- X,Y,Z Vertex 1 {m}
  3, 3, 0,                                !- X,Y,Z Vertex 2 {m}
  3, 47, 0,                               !- X,Y,Z Vertex 3 {m}
  3, 47, 4;                               !- X,Y,Z Vertex 4 {m}

OS:Surface,
  {96a180c5-1b80-4eae-9e01-1d23e1eea726}, !- Handle
  Surface 5,                              !- Name
  Wall,                                   !- Surface Type
  ,                                       !- Construction Name
  {d6d2d29d-a228-4d7a-8159-45114d861046}, !- Space Name
  Surface,                                !- Outside Boundary Condition
  {3d996afb-c1a7-4122-a769-317cb2087629}, !- Outside Boundary Condition Object
  NoSun,                                  !- Sun Exposure
  NoWind,                                 !- Wind Exposure
  ,                                       !- View Factor to Ground
  ,                                       !- Number of Vertices
  0, 0, 4,                                !- X,Y,Z Vertex 1 {m}
  0, 0, 0,                                !- X,Y,Z Vertex 2 {m}
  3, 3, 0,                                !- X,Y,Z Vertex 3 {m}
  3, 3, 4;                                !- X,Y,Z Vertex 4 {m}

OS:Surface,
  {f3f9820b-c738-4ece-996a-889b668663df}, !- Handle
  Surface 6,                              !- Name
  RoofCeiling,                            !- Surface Type
  ,                                       !- Construction Name
  {d6d2d29d-a228-4d7a-8159-45114d861046}, !- Space Name
  Surface,                                !- Outside Boundary Condition
  {982433b8-b830-4dc7-96b3-04a401093c63}, !- Outside Boundary Condition Object
  NoSun,                                  !- Sun Exposure
  NoWind,                                 !- Wind Exposure
  ,                                       !- View Factor to Ground
  ,                                       !- Number of Vertices
  3, 3, 4,                                !- X,Y,Z Vertex 1 {m}
  3, 47, 4,                               !- X,Y,Z Vertex 2 {m}
  0, 50, 4,                               !- X,Y,Z Vertex 3 {m}
  0, 0, 4;                                !- X,Y,Z Vertex 4 {m}

OS:Space,
  {71930dc6-5e2e-4fab-9a89-51222882c791}, !- Handle
  Story 1 North Perimeter Space,          !- Name
  ,                                       !- Space Type Name
  ,                                       !- Default Construction Set Name
  ,                                       !- Default Schedule Set Name
  -0,                                     !- Direction of Relative North {deg}
  3,                                      !- X Origin {m}
  47,                                     !- Y Origin {m}
  0,                                      !- Z Origin {m}
  {592f577e-4fe5-49bd-97cc-7624e68043ad}, !- Building Story Name
  {f2c7a805-c6e5-42da-aa2f-c123068de43f}; !- Thermal Zone Name

OS:Surface,
  {382568d2-402e-4309-a29a-cf616550f466}, !- Handle
  Surface 7,                              !- Name
  Floor,                                  !- Surface Type
  {d0bb0728-9ad5-446c-b005-a0268124924f}, !- Construction Name
  {71930dc6-5e2e-4fab-9a89-51222882c791}, !- Space Name
  Foundation,                             !- Outside Boundary Condition
  {83e95959-0ffe-401c-ac40-dd9ca470aa04}, !- Outside Boundary Condition Object
  NoSun,                                  !- Sun Exposure
  NoWind,                                 !- Wind Exposure
  ,                                       !- View Factor to Ground
  ,                                       !- Number of Vertices
  -3, 3, 0,                               !- X,Y,Z Vertex 1 {m}
  97, 3, 0,                               !- X,Y,Z Vertex 2 {m}
  94, 0, 0,                               !- X,Y,Z Vertex 3 {m}
  0, 0, 0;                                !- X,Y,Z Vertex 4 {m}

OS:Surface,
  {af766308-1423-438f-8e0e-ca5300d21853}, !- Handle
  Surface 8,                              !- Name
  Wall,                                   !- Surface Type
  ,                                       !- Construction Name
  {71930dc6-5e2e-4fab-9a89-51222882c791}, !- Space Name
  Outdoors,                               !- Outside Boundary Condition
  ,                                       !- Outside Boundary Condition Object
  SunExposed,                             !- Sun Exposure
  WindExposed,                            !- Wind Exposure
  ,                                       !- View Factor to Ground
  ,                                       !- Number of Vertices
  97, 3, 4,                               !- X,Y,Z Vertex 1 {m}
  97, 3, 0,                               !- X,Y,Z Vertex 2 {m}
  -3, 3, 0,                               !- X,Y,Z Vertex 3 {m}
  -3, 3, 4;                               !- X,Y,Z Vertex 4 {m}

OS:Surface,
  {2e30904f-9c81-4d12-bf37-ba9b9371ff95}, !- Handle
  Surface 9,                              !- Name
  Wall,                                   !- Surface Type
  ,                                       !- Construction Name
  {71930dc6-5e2e-4fab-9a89-51222882c791}, !- Space Name
  Surface,                                !- Outside Boundary Condition
  {09b0ab67-1b2a-4b44-9ec0-5226608b39f0}, !- Outside Boundary Condition Object
  NoSun,                                  !- Sun Exposure
  NoWind,                                 !- Wind Exposure
  ,                                       !- View Factor to Ground
  ,                                       !- Number of Vertices
  94, 0, 4,                               !- X,Y,Z Vertex 1 {m}
  94, 0, 0,                               !- X,Y,Z Vertex 2 {m}
  97, 3, 0,                               !- X,Y,Z Vertex 3 {m}
  97, 3, 4;                               !- X,Y,Z Vertex 4 {m}

OS:Surface,
  {965f9ad4-266c-4231-8556-cab17de92fcb}, !- Handle
  Surface 10,                             !- Name
  Wall,                                   !- Surface Type
  ,                                       !- Construction Name
  {71930dc6-5e2e-4fab-9a89-51222882c791}, !- Space Name
  Surface,                                !- Outside Boundary Condition
  {2c0d68e5-4571-4e21-bfd0-d7434c91766e}, !- Outside Boundary Condition Object
  NoSun,                                  !- Sun Exposure
  NoWind,                                 !- Wind Exposure
  ,                                       !- View Factor to Ground
  ,                                       !- Number of Vertices
  0, 0, 4,                                !- X,Y,Z Vertex 1 {m}
  0, 0, 0,                                !- X,Y,Z Vertex 2 {m}
  94, 0, 0,                               !- X,Y,Z Vertex 3 {m}
  94, 0, 4;                               !- X,Y,Z Vertex 4 {m}

OS:Surface,
  {343303a8-7a89-4e2b-be58-79ef512787dd}, !- Handle
  Surface 11,                             !- Name
  Wall,                                   !- Surface Type
  ,                                       !- Construction Name
  {71930dc6-5e2e-4fab-9a89-51222882c791}, !- Space Name
  Surface,                                !- Outside Boundary Condition
  {dcb1d972-c1e4-43f3-ad46-ade3747e0b0e}, !- Outside Boundary Condition Object
  NoSun,                                  !- Sun Exposure
  NoWind,                                 !- Wind Exposure
  ,                                       !- View Factor to Ground
  ,                                       !- Number of Vertices
  -3, 3, 4,                               !- X,Y,Z Vertex 1 {m}
  -3, 3, 0,                               !- X,Y,Z Vertex 2 {m}
  0, 0, 0,                                !- X,Y,Z Vertex 3 {m}
  0, 0, 4;                                !- X,Y,Z Vertex 4 {m}

OS:Surface,
  {0d02c748-aca2-4ee2-b64c-816fa2aa0a0a}, !- Handle
  Surface 12,                             !- Name
  RoofCeiling,                            !- Surface Type
  ,                                       !- Construction Name
  {71930dc6-5e2e-4fab-9a89-51222882c791}, !- Space Name
  Surface,                                !- Outside Boundary Condition
  {fe046942-465d-4ff6-bb77-e4e567796b7f}, !- Outside Boundary Condition Object
  NoSun,                                  !- Sun Exposure
  NoWind,                                 !- Wind Exposure
  ,                                       !- View Factor to Ground
  ,                                       !- Number of Vertices
  0, 0, 4,                                !- X,Y,Z Vertex 1 {m}
  94, 0, 4,                               !- X,Y,Z Vertex 2 {m}
  97, 3, 4,                               !- X,Y,Z Vertex 3 {m}
  -3, 3, 4;                               !- X,Y,Z Vertex 4 {m}

OS:Space,
  {9e56bf7d-f804-431e-95d0-03da793669f1}, !- Handle
  Story 1 East Perimeter Space,           !- Name
  ,                                       !- Space Type Name
  ,                                       !- Default Construction Set Name
  ,                                       !- Default Schedule Set Name
  -0,                                     !- Direction of Relative North {deg}
  97,                                     !- X Origin {m}
  3,                                      !- Y Origin {m}
  0,                                      !- Z Origin {m}
  {592f577e-4fe5-49bd-97cc-7624e68043ad}, !- Building Story Name
  {3fd5a4ab-8790-462d-897b-d4cd069b7295}; !- Thermal Zone Name

OS:Surface,
  {c462a107-2a81-4320-b0a8-9ed389f64125}, !- Handle
  Surface 13,                             !- Name
  Floor,                                  !- Surface Type
  {d0bb0728-9ad5-446c-b005-a0268124924f}, !- Construction Name
  {9e56bf7d-f804-431e-95d0-03da793669f1}, !- Space Name
  Foundation,                             !- Outside Boundary Condition
  {83e95959-0ffe-401c-ac40-dd9ca470aa04}, !- Outside Boundary Condition Object
  NoSun,                                  !- Sun Exposure
  NoWind,                                 !- Wind Exposure
  ,                                       !- View Factor to Ground
  ,                                       !- Number of Vertices
  3, 47, 0,                               !- X,Y,Z Vertex 1 {m}
  3, -3, 0,                               !- X,Y,Z Vertex 2 {m}
  0, 0, 0,                                !- X,Y,Z Vertex 3 {m}
  0, 44, 0;                               !- X,Y,Z Vertex 4 {m}

OS:Surface,
  {a03af96e-0e4b-4262-bc16-9bdfb614852e}, !- Handle
  Surface 14,                             !- Name
  Wall,                                   !- Surface Type
  ,                                       !- Construction Name
  {9e56bf7d-f804-431e-95d0-03da793669f1}, !- Space Name
  Outdoors,                               !- Outside Boundary Condition
  ,                                       !- Outside Boundary Condition Object
  SunExposed,                             !- Sun Exposure
  WindExposed,                            !- Wind Exposure
  ,                                       !- View Factor to Ground
  ,                                       !- Number of Vertices
  3, -3, 4,                               !- X,Y,Z Vertex 1 {m}
  3, -3, 0,                               !- X,Y,Z Vertex 2 {m}
  3, 47, 0,                               !- X,Y,Z Vertex 3 {m}
  3, 47, 4;                               !- X,Y,Z Vertex 4 {m}

OS:Surface,
  {b985f7aa-cf00-4497-b6e9-44804cb7da55}, !- Handle
  Surface 15,                             !- Name
  Wall,                                   !- Surface Type
  ,                                       !- Construction Name
  {9e56bf7d-f804-431e-95d0-03da793669f1}, !- Space Name
  Surface,                                !- Outside Boundary Condition
  {c3fdcf3d-2a4f-4710-aedc-c9510989f892}, !- Outside Boundary Condition Object
  NoSun,                                  !- Sun Exposure
  NoWind,                                 !- Wind Exposure
  ,                                       !- View Factor to Ground
  ,                                       !- Number of Vertices
  0, 0, 4,                                !- X,Y,Z Vertex 1 {m}
  0, 0, 0,                                !- X,Y,Z Vertex 2 {m}
  3, -3, 0,                               !- X,Y,Z Vertex 3 {m}
  3, -3, 4;                               !- X,Y,Z Vertex 4 {m}

OS:Surface,
  {fff9c544-e937-4140-b8f7-deee6564e5f2}, !- Handle
  Surface 16,                             !- Name
  Wall,                                   !- Surface Type
  ,                                       !- Construction Name
  {9e56bf7d-f804-431e-95d0-03da793669f1}, !- Space Name
  Surface,                                !- Outside Boundary Condition
  {36f14b66-f49d-4ab8-b8ea-f0a94b10e715}, !- Outside Boundary Condition Object
  NoSun,                                  !- Sun Exposure
  NoWind,                                 !- Wind Exposure
  ,                                       !- View Factor to Ground
  ,                                       !- Number of Vertices
  0, 44, 4,                               !- X,Y,Z Vertex 1 {m}
  0, 44, 0,                               !- X,Y,Z Vertex 2 {m}
  0, 0, 0,                                !- X,Y,Z Vertex 3 {m}
  0, 0, 4;                                !- X,Y,Z Vertex 4 {m}

OS:Surface,
  {09b0ab67-1b2a-4b44-9ec0-5226608b39f0}, !- Handle
  Surface 17,                             !- Name
  Wall,                                   !- Surface Type
  ,                                       !- Construction Name
  {9e56bf7d-f804-431e-95d0-03da793669f1}, !- Space Name
  Surface,                                !- Outside Boundary Condition
  {2e30904f-9c81-4d12-bf37-ba9b9371ff95}, !- Outside Boundary Condition Object
  NoSun,                                  !- Sun Exposure
  NoWind,                                 !- Wind Exposure
  ,                                       !- View Factor to Ground
  ,                                       !- Number of Vertices
  3, 47, 4,                               !- X,Y,Z Vertex 1 {m}
  3, 47, 0,                               !- X,Y,Z Vertex 2 {m}
  0, 44, 0,                               !- X,Y,Z Vertex 3 {m}
  0, 44, 4;                               !- X,Y,Z Vertex 4 {m}

OS:Surface,
  {8bd97f21-f2ee-4b61-85e1-b626d2b172dd}, !- Handle
  Surface 18,                             !- Name
  RoofCeiling,                            !- Surface Type
  ,                                       !- Construction Name
  {9e56bf7d-f804-431e-95d0-03da793669f1}, !- Space Name
  Surface,                                !- Outside Boundary Condition
  {1046617b-540f-44eb-8371-66baec270b8d}, !- Outside Boundary Condition Object
  NoSun,                                  !- Sun Exposure
  NoWind,                                 !- Wind Exposure
  ,                                       !- View Factor to Ground
  ,                                       !- Number of Vertices
  0, 44, 4,                               !- X,Y,Z Vertex 1 {m}
  0, 0, 4,                                !- X,Y,Z Vertex 2 {m}
  3, -3, 4,                               !- X,Y,Z Vertex 3 {m}
  3, 47, 4;                               !- X,Y,Z Vertex 4 {m}

OS:Space,
  {dee5ff47-7f48-49b0-bcb3-c27b28b0ddeb}, !- Handle
  Story 1 South Perimeter Space,          !- Name
  ,                                       !- Space Type Name
  ,                                       !- Default Construction Set Name
  ,                                       !- Default Schedule Set Name
  -0,                                     !- Direction of Relative North {deg}
  0,                                      !- X Origin {m}
  0,                                      !- Y Origin {m}
  0,                                      !- Z Origin {m}
  {592f577e-4fe5-49bd-97cc-7624e68043ad}, !- Building Story Name
  {4ba8f036-2b84-442c-862f-d6abd8a5cd30}; !- Thermal Zone Name

OS:Surface,
  {cb9847ee-acb8-4e63-82dc-f07e967bd266}, !- Handle
  Surface 19,                             !- Name
  Floor,                                  !- Surface Type
  {d0bb0728-9ad5-446c-b005-a0268124924f}, !- Construction Name
  {dee5ff47-7f48-49b0-bcb3-c27b28b0ddeb}, !- Space Name
  Foundation,                             !- Outside Boundary Condition
  {83e95959-0ffe-401c-ac40-dd9ca470aa04}, !- Outside Boundary Condition Object
  NoSun,                                  !- Sun Exposure
  NoWind,                                 !- Wind Exposure
  ,                                       !- View Factor to Ground
  ,                                       !- Number of Vertices
  100, 0, 0,                              !- X,Y,Z Vertex 1 {m}
  0, 0, 0,                                !- X,Y,Z Vertex 2 {m}
  3, 3, 0,                                !- X,Y,Z Vertex 3 {m}
  97, 3, 0;                               !- X,Y,Z Vertex 4 {m}

OS:Surface,
  {e7eac108-5f13-46c8-9441-8f866948783b}, !- Handle
  Surface 20,                             !- Name
  Wall,                                   !- Surface Type
  ,                                       !- Construction Name
  {dee5ff47-7f48-49b0-bcb3-c27b28b0ddeb}, !- Space Name
  Outdoors,                               !- Outside Boundary Condition
  ,                                       !- Outside Boundary Condition Object
  SunExposed,                             !- Sun Exposure
  WindExposed,                            !- Wind Exposure
  ,                                       !- View Factor to Ground
  ,                                       !- Number of Vertices
  0, 0, 4,                                !- X,Y,Z Vertex 1 {m}
  0, 0, 0,                                !- X,Y,Z Vertex 2 {m}
  100, 0, 0,                              !- X,Y,Z Vertex 3 {m}
  100, 0, 4;                              !- X,Y,Z Vertex 4 {m}

OS:Surface,
  {3d996afb-c1a7-4122-a769-317cb2087629}, !- Handle
  Surface 21,                             !- Name
  Wall,                                   !- Surface Type
  ,                                       !- Construction Name
  {dee5ff47-7f48-49b0-bcb3-c27b28b0ddeb}, !- Space Name
  Surface,                                !- Outside Boundary Condition
  {96a180c5-1b80-4eae-9e01-1d23e1eea726}, !- Outside Boundary Condition Object
  NoSun,                                  !- Sun Exposure
  NoWind,                                 !- Wind Exposure
  ,                                       !- View Factor to Ground
  ,                                       !- Number of Vertices
  3, 3, 4,                                !- X,Y,Z Vertex 1 {m}
  3, 3, 0,                                !- X,Y,Z Vertex 2 {m}
  0, 0, 0,                                !- X,Y,Z Vertex 3 {m}
  0, 0, 4;                                !- X,Y,Z Vertex 4 {m}

OS:Surface,
  {7a791adb-b032-41ab-b0a9-88dbc353fb6b}, !- Handle
  Surface 22,                             !- Name
  Wall,                                   !- Surface Type
  ,                                       !- Construction Name
  {dee5ff47-7f48-49b0-bcb3-c27b28b0ddeb}, !- Space Name
  Surface,                                !- Outside Boundary Condition
  {1f3b00b5-6847-43c8-926c-f4afdfc1ba91}, !- Outside Boundary Condition Object
  NoSun,                                  !- Sun Exposure
  NoWind,                                 !- Wind Exposure
  ,                                       !- View Factor to Ground
  ,                                       !- Number of Vertices
  97, 3, 4,                               !- X,Y,Z Vertex 1 {m}
  97, 3, 0,                               !- X,Y,Z Vertex 2 {m}
  3, 3, 0,                                !- X,Y,Z Vertex 3 {m}
  3, 3, 4;                                !- X,Y,Z Vertex 4 {m}

OS:Surface,
  {c3fdcf3d-2a4f-4710-aedc-c9510989f892}, !- Handle
  Surface 23,                             !- Name
  Wall,                                   !- Surface Type
  ,                                       !- Construction Name
  {dee5ff47-7f48-49b0-bcb3-c27b28b0ddeb}, !- Space Name
  Surface,                                !- Outside Boundary Condition
  {b985f7aa-cf00-4497-b6e9-44804cb7da55}, !- Outside Boundary Condition Object
  NoSun,                                  !- Sun Exposure
  NoWind,                                 !- Wind Exposure
  ,                                       !- View Factor to Ground
  ,                                       !- Number of Vertices
  100, 0, 4,                              !- X,Y,Z Vertex 1 {m}
  100, 0, 0,                              !- X,Y,Z Vertex 2 {m}
  97, 3, 0,                               !- X,Y,Z Vertex 3 {m}
  97, 3, 4;                               !- X,Y,Z Vertex 4 {m}

OS:Surface,
  {60f87ce6-630c-4058-bb9d-8b4fbcb35490}, !- Handle
  Surface 24,                             !- Name
  RoofCeiling,                            !- Surface Type
  ,                                       !- Construction Name
  {dee5ff47-7f48-49b0-bcb3-c27b28b0ddeb}, !- Space Name
  Surface,                                !- Outside Boundary Condition
  {362cc16e-147e-49c8-b04a-f02dd5a2dbc8}, !- Outside Boundary Condition Object
  NoSun,                                  !- Sun Exposure
  NoWind,                                 !- Wind Exposure
  ,                                       !- View Factor to Ground
  ,                                       !- Number of Vertices
  97, 3, 4,                               !- X,Y,Z Vertex 1 {m}
  3, 3, 4,                                !- X,Y,Z Vertex 2 {m}
  0, 0, 4,                                !- X,Y,Z Vertex 3 {m}
  100, 0, 4;                              !- X,Y,Z Vertex 4 {m}

OS:Space,
  {6a0ffba5-37ed-48b5-b943-3a321fa84a70}, !- Handle
  Story 1 Core Space,                     !- Name
  ,                                       !- Space Type Name
  ,                                       !- Default Construction Set Name
  ,                                       !- Default Schedule Set Name
  -0,                                     !- Direction of Relative North {deg}
  3,                                      !- X Origin {m}
  3,                                      !- Y Origin {m}
  0,                                      !- Z Origin {m}
  {592f577e-4fe5-49bd-97cc-7624e68043ad}, !- Building Story Name
  {82f564e9-ea51-4428-a54f-5ad5103d8f5d}; !- Thermal Zone Name

OS:Surface,
  {ba86895e-e822-4fcb-a12f-f520bf0e67d0}, !- Handle
  Surface 25,                             !- Name
  Floor,                                  !- Surface Type
  {d0bb0728-9ad5-446c-b005-a0268124924f}, !- Construction Name
  {6a0ffba5-37ed-48b5-b943-3a321fa84a70}, !- Space Name
  Foundation,                             !- Outside Boundary Condition
  {83e95959-0ffe-401c-ac40-dd9ca470aa04}, !- Outside Boundary Condition Object
  NoSun,                                  !- Sun Exposure
  NoWind,                                 !- Wind Exposure
  ,                                       !- View Factor to Ground
  ,                                       !- Number of Vertices
  0, 0, 0,                                !- X,Y,Z Vertex 1 {m}
  0, 44, 0,                               !- X,Y,Z Vertex 2 {m}
  94, 44, 0,                              !- X,Y,Z Vertex 3 {m}
  94, 0, 0;                               !- X,Y,Z Vertex 4 {m}

OS:Surface,
  {dad0f725-d370-4309-9848-26aa32d227c7}, !- Handle
  Surface 26,                             !- Name
  Wall,                                   !- Surface Type
  ,                                       !- Construction Name
  {6a0ffba5-37ed-48b5-b943-3a321fa84a70}, !- Space Name
  Surface,                                !- Outside Boundary Condition
  {ea65740d-9647-4857-97ea-a1426053b1af}, !- Outside Boundary Condition Object
  NoSun,                                  !- Sun Exposure
  NoWind,                                 !- Wind Exposure
  ,                                       !- View Factor to Ground
  ,                                       !- Number of Vertices
  0, 44, 4,                               !- X,Y,Z Vertex 1 {m}
  0, 44, 0,                               !- X,Y,Z Vertex 2 {m}
  0, 0, 0,                                !- X,Y,Z Vertex 3 {m}
  0, 0, 4;                                !- X,Y,Z Vertex 4 {m}

OS:Surface,
  {2c0d68e5-4571-4e21-bfd0-d7434c91766e}, !- Handle
  Surface 27,                             !- Name
  Wall,                                   !- Surface Type
  ,                                       !- Construction Name
  {6a0ffba5-37ed-48b5-b943-3a321fa84a70}, !- Space Name
  Surface,                                !- Outside Boundary Condition
  {965f9ad4-266c-4231-8556-cab17de92fcb}, !- Outside Boundary Condition Object
  NoSun,                                  !- Sun Exposure
  NoWind,                                 !- Wind Exposure
  ,                                       !- View Factor to Ground
  ,                                       !- Number of Vertices
  94, 44, 4,                              !- X,Y,Z Vertex 1 {m}
  94, 44, 0,                              !- X,Y,Z Vertex 2 {m}
  0, 44, 0,                               !- X,Y,Z Vertex 3 {m}
  0, 44, 4;                               !- X,Y,Z Vertex 4 {m}

OS:Surface,
  {36f14b66-f49d-4ab8-b8ea-f0a94b10e715}, !- Handle
  Surface 28,                             !- Name
  Wall,                                   !- Surface Type
  ,                                       !- Construction Name
  {6a0ffba5-37ed-48b5-b943-3a321fa84a70}, !- Space Name