
OS:Version,
  {11ab27bb-bb60-427f-91d2-6e717e852eb1}, !- Handle
  3.2.0;                                  !- Version Identifier

OS:BuildingStory,
  {6d466553-4f8b-4713-9caa-cfa6df1611a4}, !- Handle
  Story 1,                                !- Name
  0,                                      !- Nominal Z Coordinate {m}
  4,                                      !- Nominal Floor to Floor Height {m}
  ,                                       !- Default Construction Set Name
  ,                                       !- Default Schedule Set Name
  ;                                       !- Group Rendering Name

OS:Space,
  {86964f06-8b4d-4bb6-9e37-bbd571d2dd69}, !- Handle
  Story 1 Core Space,                     !- Name
  ,                                       !- Space Type Name
  ,                                       !- Default Construction Set Name
  ,                                       !- Default Schedule Set Name
  -0,                                     !- Direction of Relative North {deg}
  0,                                      !- X Origin {m}
  0,                                      !- Y Origin {m}
  0,                                      !- Z Origin {m}
  {6d466553-4f8b-4713-9caa-cfa6df1611a4}, !- Building Story Name
  {50a30b56-9b55-4856-8b7a-17a338076ea1}; !- Thermal Zone Name

OS:Surface,
  {f1e520dd-21a0-44ca-8c61-0e56d692d703}, !- Handle
  Surface 1,                              !- Name
  Floor,                                  !- Surface Type
  ,                                       !- Construction Name
  {86964f06-8b4d-4bb6-9e37-bbd571d2dd69}, !- Space Name
  Ground,                                 !- Outside Boundary Condition
  ,                                       !- Outside Boundary Condition Object
  NoSun,                                  !- Sun Exposure
  NoWind,                                 !- Wind Exposure
  ,                                       !- View Factor to Ground
  ,                                       !- Number of Vertices
  0, 0, 0,                                !- X,Y,Z Vertex 1 {m}
  0, 50, 0,                               !- X,Y,Z Vertex 2 {m}
  100, 50, 0,                             !- X,Y,Z Vertex 3 {m}
  100, 0, 0;                              !- X,Y,Z Vertex 4 {m}

OS:Surface,
  {4669e6d3-d1e9-4095-9232-0567d5721be5}, !- Handle
  Surface 2,                              !- Name
  Wall,                                   !- Surface Type
  ,                                       !- Construction Name
  {86964f06-8b4d-4bb6-9e37-bbd571d2dd69}, !- Space Name
  Outdoors,                               !- Outside Boundary Condition
  ,                                       !- Outside Boundary Condition Object
  SunExposed,                             !- Sun Exposure
  WindExposed,                            !- Wind Exposure
  ,                                       !- View Factor to Ground
  ,                                       !- Number of Vertices
  0, 50, 4,                               !- X,Y,Z Vertex 1 {m}
  0, 50, 0,                               !- X,Y,Z Vertex 2 {m}
  0, 0, 0,                                !- X,Y,Z Vertex 3 {m}
  0, 0, 4;                                !- X,Y,Z Vertex 4 {m}

OS:Surface,
  {3ee24c01-597f-4627-a592-662abd9e480b}, !- Handle
  Surface 3,                              !- Name
  Wall,                                   !- Surface Type
  ,                                       !- Construction Name
  {86964f06-8b4d-4bb6-9e37-bbd571d2dd69}, !- Space Name
  Outdoors,                               !- Outside Boundary Condition
  ,                                       !- Outside Boundary Condition Object
  SunExposed,                             !- Sun Exposure
  WindExposed,                            !- Wind Exposure
  ,                                       !- View Factor to Ground
  ,                                       !- Number of Vertices
  100, 50, 4,                             !- X,Y,Z Vertex 1 {m}
  100, 50, 0,                             !- X,Y,Z Vertex 2 {m}
  0, 50, 0,                               !- X,Y,Z Vertex 3 {m}
  0, 50, 4;                               !- X,Y,Z Vertex 4 {m}

OS:Surface,
  {6adefd2d-50e9-4a24-8fd3-a6f4c6dba0d6}, !- Handle
  Surface 4,                              !- Name
  Wall,                                   !- Surface Type
  ,                                       !- Construction Name
  {86964f06-8b4d-4bb6-9e37-bbd571d2dd69}, !- Space Name
  Outdoors,                               !- Outside Boundary Condition
  ,                                       !- Outside Boundary Condition Object
  SunExposed,                             !- Sun Exposure
  WindExposed,                            !- Wind Exposure
  ,                                       !- View Factor to Ground
  ,                                       !- Number of Vertices
  100, 0, 4,                              !- X,Y,Z Vertex 1 {m}
  100, 0, 0,                              !- X,Y,Z Vertex 2 {m}
  100, 50, 0,                             !- X,Y,Z Vertex 3 {m}
  100, 50, 4;                             !- X,Y,Z Vertex 4 {m}

OS:Surface,
  {df884d3d-ccdf-4b70-9b68-d91b78d59f08}, !- Handle
  Surface 5,                              !- Name
  Wall,                                   !- Surface Type
  ,                                       !- Construction Name
  {86964f06-8b4d-4bb6-9e37-bbd571d2dd69}, !- Space Name
  Outdoors,                               !- Outside Boundary Condition
  ,                                       !- Outside Boundary Condition Object
  SunExposed,                             !- Sun Exposure
  WindExposed,                            !- Wind Exposure
  ,                                       !- View Factor to Ground
  ,                                       !- Number of Vertices
  0, 0, 4,                                !- X,Y,Z Vertex 1 {m}
  0, 0, 0,                                !- X,Y,Z Vertex 2 {m}
  100, 0, 0,                              !- X,Y,Z Vertex 3 {m}
  100, 0, 4;                              !- X,Y,Z Vertex 4 {m}

OS:Surface,
  {79c5b333-b53a-44b6-94a1-0b01816c7144}, !- Handle
  Surface 6,                              !- Name
  RoofCeiling,                            !- Surface Type
  ,                                       !- Construction Name
  {86964f06-8b4d-4bb6-9e37-bbd571d2dd69}, !- Space Name
  Outdoors,                               !- Outside Boundary Condition
  ,                                       !- Outside Boundary Condition Object
  SunExposed,                             !- Sun Exposure
  WindExposed,                            !- Wind Exposure
  ,                                       !- View Factor to Ground
  ,                                       !- Number of Vertices
  100, 0, 4,                              !- X,Y,Z Vertex 1 {m}
  100, 50, 4,                             !- X,Y,Z Vertex 2 {m}
  0, 50, 4,                               !- X,Y,Z Vertex 3 {m}
  0, 0, 4;                                !- X,Y,Z Vertex 4 {m}

OS:ThermalZone,
  {50a30b56-9b55-4856-8b7a-17a338076ea1}, !- Handle
  Story 1 Core Thermal Zone,              !- Name
  ,                                       !- Multiplier
  ,                                       !- Ceiling Height {m}
  ,                                       !- Volume {m3}
  ,                                       !- Floor Area {m2}
  ,                                       !- Zone Inside Convection Algorithm
  ,                                       !- Zone Outside Convection Algorithm
  ,                                       !- Zone Conditioning Equipment List Name
  {d0d9d030-2b97-4138-97e8-5fd2b7dcab6f}, !- Zone Air Inlet Port List
  {bd46670f-9b95-416c-a55f-12a858d64f82}, !- Zone Air Exhaust Port List
  {159f171f-0b0d-4627-add2-8115169e84e0}, !- Zone Air Node Name
  {1878e646-8b4f-42e4-9872-55b002f7a01c}, !- Zone Return Air Port List
  ,                                       !- Primary Daylighting Control Name
  ,                                       !- Fraction of Zone Controlled by Primary Daylighting Control
  ,                                       !- Secondary Daylighting Control Name
  ,                                       !- Fraction of Zone Controlled by Secondary Daylighting Control
  ,                                       !- Illuminance Map Name
  ,                                       !- Group Rendering Name
  {aa4c7852-d09d-4e6b-8919-14e684bb67f2}, !- Thermostat Name
  Yes;                                    !- Use Ideal Air Loads

OS:Node,
  {9e9ced46-cde8-44e2-8acb-f9dae2a94479}, !- Handle
  Node 1,                                 !- Name
  {159f171f-0b0d-4627-add2-8115169e84e0}, !- Inlet Port
  ;                                       !- Outlet Port

OS:Connection,
  {159f171f-0b0d-4627-add2-8115169e84e0}, !- Handle
  {50a30b56-9b55-4856-8b7a-17a338076ea1}, !- Source Object
  11,                                     !- Outlet Port
  {9e9ced46-cde8-44e2-8acb-f9dae2a94479}, !- Target Object
  2;                                      !- Inlet Port

OS:PortList,
  {d0d9d030-2b97-4138-97e8-5fd2b7dcab6f}, !- Handle
  {50a30b56-9b55-4856-8b7a-17a338076ea1}; !- HVAC Component

OS:PortList,
  {bd46670f-9b95-416c-a55f-12a858d64f82}, !- Handle
  {50a30b56-9b55-4856-8b7a-17a338076ea1}; !- HVAC Component

OS:PortList,
  {1878e646-8b4f-42e4-9872-55b002f7a01c}, !- Handle
  {50a30b56-9b55-4856-8b7a-17a338076ea1}; !- HVAC Component

OS:Sizing:Zone,
  {4b88fb22-58ab-4029-9961-a9ba0c99d9e6}, !- Handle
  {50a30b56-9b55-4856-8b7a-17a338076ea1}, !- Zone or ZoneList Name
  SupplyAirTemperature,                   !- Zone Cooling Design Supply Air Temperature Input Method
  14,                                     !- Zone Cooling Design Supply Air Temperature {C}
  11.11,                                  !- Zone Cooling Design Supply Air Temperature Difference {deltaC}
  SupplyAirTemperature,                   !- Zone Heating Design Supply Air Temperature Input Method
  40,                                     !- Zone Heating Design Supply Air Temperature {C}
  11.11,                                  !- Zone Heating Design Supply Air Temperature Difference {deltaC}
  0.0085,                                 !- Zone Cooling Design Supply Air Humidity Ratio {kg-H2O/kg-air}
  0.008,                                  !- Zone Heating Design Supply Air Humidity Ratio {kg-H2O/kg-air}
  ,                                       !- Zone Heating Sizing Factor
  ,                                       !- Zone Cooling Sizing Factor
  DesignDay,                              !- Cooling Design Air Flow Method
  ,                                       !- Cooling Design Air Flow Rate {m3/s}
  ,                                       !- Cooling Minimum Air Flow per Zone Floor Area {m3/s-m2}
  ,                                       !- Cooling Minimum Air Flow {m3/s}
  ,                                       !- Cooling Minimum Air Flow Fraction
  DesignDay,                              !- Heating Design Air Flow Method
  ,                                       !- Heating Design Air Flow Rate {m3/s}
  ,                                       !- Heating Maximum Air Flow per Zone Floor Area {m3/s-m2}
  ,                                       !- Heating Maximum Air Flow {m3/s}
  ,                                       !- Heating Maximum Air Flow Fraction
  No,                                     !- Account for Dedicated Outdoor Air System
  NeutralSupplyAir,                       !- Dedicated Outdoor Air System Control Strategy
  autosize,                               !- Dedicated Outdoor Air Low Setpoint Temperature for Design {C}
  autosize;                               !- Dedicated Outdoor Air High Setpoint Temperature for Design {C}

OS:ZoneHVAC:EquipmentList,
  {df7b5654-e2f4-4a8a-97d0-9838e44e49ed}, !- Handle
  Zone HVAC Equipment List 1,             !- Name
  {50a30b56-9b55-4856-8b7a-17a338076ea1}; !- Thermal Zone

OS:SubSurface,
  {8a72f0e6-3390-4914-a08d-eed001c1cbc1}, !- Handle
  Sub Surface 1,                          !- Name
  FixedWindow,                            !- Sub Surface Type
  ,                                       !- Construction Name
  {df884d3d-ccdf-4b70-9b68-d91b78d59f08}, !- Surface Name
  ,                                       !- Outside Boundary Condition Object
  ,                                       !- View Factor to Ground
  ,                                       !- Frame and Divider Name
  ,                                       !- Multiplier
  ,                                       !- Number of Vertices
  0.0254, 0, 2.60081321311226,            !- X,Y,Z Vertex 1 {m}
  0.0254, 0, 1,                           !- X,Y,Z Vertex 2 {m}
  99.9746, 0, 1,                          !- X,Y,Z Vertex 3 {m}
  99.9746, 0, 2.60081321311226;           !- X,Y,Z Vertex 4 {m}

OS:SubSurface,
  {546ab22c-dd69-4c87-8ade-130d6b514fd5}, !- Handle
  Sub Surface 2,                          !- Name
  FixedWindow,                            !- Sub Surface Type
  ,                                       !- Construction Name
  {6adefd2d-50e9-4a24-8fd3-a6f4c6dba0d6}, !- Surface Name
  ,                                       !- Outside Boundary Condition Object
  ,                                       !- View Factor to Ground
  ,                                       !- Frame and Divider Name
  ,                                       !- Multiplier
  ,                                       !- Number of Vertices
  100, 0.0254, 2.60162725328934,          !- X,Y,Z Vertex 1 {m}
  100, 0.0254, 1,                         !- X,Y,Z Vertex 2 {m}
  100, 49.9746, 1,                        !- X,Y,Z Vertex 3 {m}
  100, 49.9746, 2.60162725328934;         !- X,Y,Z Vertex 4 {m}

OS:SubSurface,
  {8a30cf7f-0f56-4dad-81dd-1e5bd4366f5e}, !- Handle
  Sub Surface 3,                          !- Name
  FixedWindow,                            !- Sub Surface Type
  ,                                       !- Construction Name
  {3ee24c01-597f-4627-a592-662abd9e480b}, !- Surface Name
  ,                                       !- Outside Boundary Condition Object
  ,                                       !- View Factor to Ground
  ,                                       !- Frame and Divider Name
  ,                                       !- Multiplier
  ,                                       !- Number of Vertices
  99.9746, 50, 2.60081321311226,          !- X,Y,Z Vertex 1 {m}
  99.9746, 50, 1,                         !- X,Y,Z Vertex 2 {m}
  0.0253999999999905, 50, 1,              !- X,Y,Z Vertex 3 {m}
  0.0253999999999905, 50, 2.60081321311226; !- X,Y,Z Vertex 4 {m}

OS:SubSurface,
  {24f44502-0fae-4a7b-bad8-755566888b7a}, !- Handle
  Sub Surface 4,                          !- Name
  FixedWindow,                            !- Sub Surface Type
  ,                                       !- Construction Name
  {4669e6d3-d1e9-4095-9232-0567d5721be5}, !- Surface Name
  ,                                       !- Outside Boundary Condition Object
  ,                                       !- View Factor to Ground
  ,                                       !- Frame and Divider Name
  ,                                       !- Multiplier
  ,                                       !- Number of Vertices
  0, 49.9746, 2.60162725328934,           !- X,Y,Z Vertex 1 {m}
  0, 49.9746, 1,                          !- X,Y,Z Vertex 2 {m}
  0, 0.0254000000000048, 1,               !- X,Y,Z Vertex 3 {m}
  0, 0.0254000000000048, 2.60162725328934; !- X,Y,Z Vertex 4 {m}

OS:Schedule:Ruleset,
  {b14fade3-7dac-4ac9-a337-b2b976c91370}, !- Handle
  Cooling Sch,                            !- Name
  {3a2e4b72-4647-4686-ad7f-59a209ce7351}, !- Schedule Type Limits Name
  {8c795f3d-61b9-4f5f-ae1f-692d0fb051ac}; !- Default Day Schedule Name

OS:Schedule:Day,
  {8c795f3d-61b9-4f5f-ae1f-692d0fb051ac}, !- Handle
  Cooling Sch Default,                    !- Name
  {3a2e4b72-4647-4686-ad7f-59a209ce7351}, !- Schedule Type Limits Name
  ,                                       !- Interpolate to Timestep
  24,                                     !- Hour 1
  0,                                      !- Minute 1
  28;                                     !- Value Until Time 1

OS:Schedule:Ruleset,
  {526af465-abfa-4637-a626-3d342feb82e9}, !- Handle
  Heating Sch,                            !- Name
  {3a2e4b72-4647-4686-ad7f-59a209ce7351}, !- Schedule Type Limits Name
  {8091e838-29aa-41ae-a023-89c3a79cee8a}; !- Default Day Schedule Name

OS:Schedule:Day,
  {8091e838-29aa-41ae-a023-89c3a79cee8a}, !- Handle
  Heating Sch Default,                    !- Name
  {3a2e4b72-4647-4686-ad7f-59a209ce7351}, !- Schedule Type Limits Name
  ,                                       !- Interpolate to Timestep
  24,                                     !- Hour 1
  0,                                      !- Minute 1
  24;                                     !- Value Until Time 1

OS:ThermostatSetpoint:DualSetpoint,
  {aa4c7852-d09d-4e6b-8919-14e684bb67f2}, !- Handle
  Thermostat Setpoint Dual Setpoint 1,    !- Name
  {526af465-abfa-4637-a626-3d342feb82e9}, !- Heating Setpoint Temperature Schedule Name
  {b14fade3-7dac-4ac9-a337-b2b976c91370}; !- Cooling Setpoint Temperature Schedule Name

OS:ScheduleTypeLimits,
  {3a2e4b72-4647-4686-ad7f-59a209ce7351}, !- Handle
  Temperature,                            !- Name
  ,                                       !- Lower Limit Value
  ,                                       !- Upper Limit Value
  Continuous,                             !- Numeric Type
  Temperature;                            !- Unit Type

OS:DefaultConstructionSet,
  {fa112cfc-c4f9-4c88-afa9-27417c04a698}, ! Handle
  ASHRAE_189.1-2009_ClimateZone 4-5 (mdoff)_ConstSet, ! Name
  {1ccda16b-bade-48ef-b599-5114fc20f2d5}, ! Default Exterior Surface Constructions Name
  {ab2a43c9-f0d9-424d-a999-72456d92ef41}, ! Default Interior Surface Constructions Name
  {5406486f-156b-4035-9e88-f6f4eb77e0ad}, ! Default Ground Contact Surface Constructions Name
  {02c0bad4-e090-4ebf-9a7a-85586f475cee}, ! Default Exterior SubSurface Constructions Name
  {b53a6989-3ff4-4cc0-9f92-9142df870adc}, ! Default Interior SubSurface Constructions Name
  {fe413cbb-fdbb-4f72-ba20-3d98b94f0eea}, ! Interior Partition Construction Name
  ,                                       ! Space Shading Construction Name
  ,                                       ! Building Shading Construction Name
  ,                                       ! Site Shading Construction Name
  ;                                       !- Adiabatic Surface Construction Name

OS:DefaultSurfaceConstructions,
  {1ccda16b-bade-48ef-b599-5114fc20f2d5}, ! Handle
  ASHRAE_189.1-2009_ClimateZone 4-5 (mdoff)_Exterior_DefSurfCons, ! Name
  {73a32993-1246-4cf5-b7fb-568c088b373f}, ! Floor Construction Name
  {eab02c5a-08b5-4332-abcc-e9422b064c4d}, ! Wall Construction Name
  {751d57c2-e32a-4c0f-baa5-29dd128ef596}; ! Roof Ceiling Construction Name

OS:DefaultSurfaceConstructions,
  {ab2a43c9-f0d9-424d-a999-72456d92ef41}, ! Handle
  000_Interior_DefSurfCons,               ! Name
  {f264c126-184b-4f08-9362-8e2a31779e23}, ! Floor Construction Name
  {a429c4c3-63c5-4b68-8ae6-65083bbea2f9}, ! Wall Construction Name
  {d5f46009-b11f-4654-b405-6725573f7821}; ! Roof Ceiling Construction Name

OS:DefaultSurfaceConstructions,
  {5406486f-156b-4035-9e88-f6f4eb77e0ad}, ! Handle
  000_Ground_DefSurfCons,                 ! Name
  {73a32993-1246-4cf5-b7fb-568c088b373f}, ! Floor Construction Name
  {73a32993-1246-4cf5-b7fb-568c088b373f}, ! Wall Construction Name
  {73a32993-1246-4cf5-b7fb-568c088b373f}; ! Roof Ceiling Construction Name

OS:DefaultSubSurfaceConstructions,
  {02c0bad4-e090-4ebf-9a7a-85586f475cee}, ! Handle
  ASHRAE_189.1-2009_ClimateZone 4-5 (mdoff)_Exterior_DefSubCons, ! Name
  {cfdec9f4-e099-4d19-b8bb-38fca0bdf175}, ! Fixed Window Construction Name
  {cfdec9f4-e099-4d19-b8bb-38fca0bdf175}, ! Operable Window Construction Name
  {0a68da16-65f4-4138-884f-1f02824ab251}, ! Door Construction Name
  {24d55036-d3bb-4307-8b43-821ad5d3c0b8}, ! Glass Door Construction Name
  ,                                       ! Overhead Door Construction Name
  {24d55036-d3bb-4307-8b43-821ad5d3c0b8}, ! Skylight Construction Name
  {6482e77c-07c8-47ca-a491-4198db2273fb}, ! Tubular Daylight Dome Construction Name
  {6482e77c-07c8-47ca-a491-4198db2273fb}; ! Tubular Daylight Diffuser Construction Name

OS:DefaultSubSurfaceConstructions,
  {b53a6989-3ff4-4cc0-9f92-9142df870adc}, ! Handle
  000_Interior_DefSubCons,                ! Name
  {6482e77c-07c8-47ca-a491-4198db2273fb}, ! Fixed Window Construction Name
  {6482e77c-07c8-47ca-a491-4198db2273fb}, ! Operable Window Construction Name
  {08c8226a-f159-4df2-9bae-bd8e3df40e63}, ! Door Construction Name
  {24d55036-d3bb-4307-8b43-821ad5d3c0b8}, ! Glass Door Construction Name
  ,                                       ! Overhead Door Construction Name
  {24d55036-d3bb-4307-8b43-821ad5d3c0b8}, ! Skylight Construction Name
  {6482e77c-07c8-47ca-a491-4198db2273fb}, ! Tubular Daylight Dome Construction Name
  {6482e77c-07c8-47ca-a491-4198db2273fb}; ! Tubular Daylight Diffuser Construction Name

OS:Construction,
  {fe413cbb-fdbb-4f72-ba20-3d98b94f0eea}, ! Handle
  000_Interior Partition,                 ! Name
  ,                                       ! Surface Rendering Name
  {16740b00-77d3-42b1-b39a-51d26e562188}; ! Layer 1

OS:Construction,
  {73a32993-1246-4cf5-b7fb-568c088b373f}, ! Handle
  000_ExtSlabCarpet_4in_ClimateZone 1-8,  ! Name
  ,                                       ! Surface Rendering Name
  {0fe817c6-a232-4dba-92f7-719b589a014f}, ! Layer 1
  {20be8a1a-7af4-4168-b7ba-0d4bf8305d2b}; ! Layer 2

OS:Construction,
  {eab02c5a-08b5-4332-abcc-e9422b064c4d}, ! Handle
  ASHRAE_189.1-2009_ExtWall_SteelFrame_ClimateZone 4-8, ! Name
  ,                                       ! Surface Rendering Name
  {877167f0-c55d-4953-8f95-f024342bd730}, ! Layer 1
  {db8670ed-5c1e-44d6-b5a0-8a3158337359}, ! Layer 2
  {80f40890-a077-47c1-9147-9b7455c6df05}; ! Layer 3

OS:Construction,
  {751d57c2-e32a-4c0f-baa5-29dd128ef596}, ! Handle
  ASHRAE_189.1-2009_ExtRoof_IEAD_ClimateZone 2-5, ! Name
  ,                                       ! Surface Rendering Name
  {ded8ba8f-a993-47be-8ea7-022a459b44e2}, ! Layer 1
  {24deca08-8cb6-4893-8383-dbcee6888322}, ! Layer 2
  {340b6dc1-f41f-423c-8621-1c2782e0c0ff}; ! Layer 3

OS:Construction,
  {f264c126-184b-4f08-9362-8e2a31779e23}, ! Handle
  000_Interior Floor,                     ! Name
  ,                                       ! Surface Rendering Name
  {2d980ee9-fb47-412f-bf49-ba461b3b78a9}, ! Layer 1
  {d87f9a0e-f4d1-4e98-860d-6a94276f3f20}, ! Layer 2
  {b92b17a7-bbf2-4561-8b2a-73d406e1b0be}; ! Layer 3

OS:Construction,
  {a429c4c3-63c5-4b68-8ae6-65083bbea2f9}, ! Handle
  000_Interior Wall,                      ! Name
  ,                                       ! Surface Rendering Name
  {bdaabfbb-890c-4842-bd94-ce9a7c22e6bf}, ! Layer 1
  {7492ca42-30ec-45ac-9b5a-f381a397cfc2}, ! Layer 2
  {bdaabfbb-890c-4842-bd94-ce9a7c22e6bf}; ! Layer 3

OS:Construction,
  {d5f46009-b11f-4654-b405-6725573f7821}, ! Handle
  000_Interior Ceiling,                   ! Name
  ,                                       ! Surface Rendering Name
  {b92b17a7-bbf2-4561-8b2a-73d406e1b0be}, ! Layer 1
  {d87f9a0e-f4d1-4e98-860d-6a94276f3f20}, ! Layer 2
  {2d980ee9-fb47-412f-bf49-ba461b3b78a9}; ! Layer 3

OS:Construction,
  {cfdec9f4-e099-4d19-b8bb-38fca0bdf175}, ! Handle
  ASHRAE_189.1-2009_ExtWindow_ClimateZone 4-5, ! Name
  ,                                       ! Surface Rendering Name
  {f6de1529-9fd8-4a54-9807-680e755c945a}; ! Layer 1

OS:Construction,
  {0a68da16-65f4-4138-884f-1f02824ab251}, ! Handle
  000_Exterior Door,                      ! Name
  ,                                       ! Surface Rendering Name
  {e61e2562-4240-4e30-869f-cdc49ba10c86}, ! Layer 1
  {edddd8ea-449a-4648-93fd-2f387c9e8c8a}; ! Layer 2

OS:Construction,
  {24d55036-d3bb-4307-8b43-821ad5d3c0b8}, ! Handle
  000_Exterior Window,                    ! Name
  ,                                       ! Surface Rendering Name
  {13c7ee06-bde7-4548-8f49-c478e7de18ae}, ! Layer 1
  {7d3de5ef-017e-4af5-8eb7-89a6034b9832}, ! Layer 2
  {13c7ee06-bde7-4548-8f49-c478e7de18ae}; ! Layer 3

OS:Construction,
  {6482e77c-07c8-47ca-a491-4198db2273fb}, ! Handle
  000_Interior Window,                    ! Name
  ,                                       ! Surface Rendering Name
  {13c7ee06-bde7-4548-8f49-c478e7de18ae}; ! Layer 1

OS:Construction,
  {08c8226a-f159-4df2-9bae-bd8e3df40e63}, ! Handle
  000_Interior Door,                      ! Name
  ,                                       ! Surface Rendering Name
  {16740b00-77d3-42b1-b39a-51d26e562188}; ! Layer 1

OS:Material,
  {16740b00-77d3-42b1-b39a-51d26e562188}, !- Handle
  000_G05 25mm wood,                      !- Name
  MediumSmooth,                           !- Roughness
  0.025399999999999999,                   !- Thickness {m}
  0.14999999999999999,                    !- Conductivity {W/m-K}
  608,                                    !- Density {kg/m3}
  1630;                                   !- Specific Heat {J/kg-K}

OS:Material,
  {0fe817c6-a232-4dba-92f7-719b589a014f}, !- Handle
  MAT-CC05 4 HW CONCRETE,                 !- Name
  Rough,                                  !- Roughness
  0.1016,                                 !- Thickness {m}
  1.3109999999999999,                     !- Conductivity {W/m-K}
  2240,                                   !- Density {kg/m3}
  836.8,                                  !- Specific Heat {J/kg-K}
  0.90000000000000002,                    !- Thermal Absorptance
  0.69999999999999996,                    !- Solar Absorptance
  0.69999999999999996;                    !- Visible Absorptance

OS:Material:NoMass,
  {20be8a1a-7af4-4168-b7ba-0d4bf8305d2b}, ! Handle
  CP02 CARPET PAD,                        ! Name
  VeryRough,                              ! Roughness
  0.2165,                                 ! Thermal Resistance
  0.90000000000000002,                    ! Thermal Absorptance
  0.69999999999999996,                    ! Solar Absorptance
  0.80000000000000004;                    ! Visible Absorptance

OS:Material:NoMass,
  {877167f0-c55d-4953-8f95-f024342bd730}, ! Handle
  MAT-SHEATH,                             ! Name
  Rough,                                  ! Roughness
  0.36259999999999998,                    ! Thermal Resistance
  0.90000000000000002,                    ! Thermal Absorptance
  0.69999999999999996,                    ! Solar Absorptance
  0.69999999999999996;                    ! Visible Absorptance

OS:Material,
  {db8670ed-5c1e-44d6-b5a0-8a3158337359}, !- Handle
  Wall Insulation [39],                   !- Name
  MediumRough,                            !- Roughness
  0.11840000000000001,                    !- Thickness {m}
  0.044999999999999998,                   !- Conductivity {W/m-K}
  265,                                    !- Density {kg/m3}
  836.8,                                  !- Specific Heat {J/kg-K}
  0.90000000000000002,                    !- Thermal Absorptance
  0.69999999999999996,                    !- Solar Absorptance
  0.69999999999999996;                    !- Visible Absorptance

OS:Material,
  {80f40890-a077-47c1-9147-9b7455c6df05}, !- Handle
  1/2IN Gypsum,                           !- Name
  Smooth,                                 !- Roughness
  0.012699999999999999,                   !- Thickness {m}
  0.16,                                   !- Conductivity {W/m-K}
  784.89999999999998,                     !- Density {kg/m3}
  830,                                    !- Specific Heat {J/kg-K}
  0.90000000000000002,                    !- Thermal Absorptance
  0.92000000000000004,                    !- Solar Absorptance
  0.92000000000000004;                    !- Visible Absorptance

OS:Material,
  {ded8ba8f-a993-47be-8ea7-022a459b44e2}, !- Handle
  Roof Membrane,                          !- Name
  VeryRough,                              !- Roughness
  0.0094999999999999998,                  !- Thickness {m}
  0.16,                                   !- Conductivity {W/m-K}
  1121.29,                                !- Density {kg/m3}
  1460,                                   !- Specific Heat {J/kg-K}
  0.90000000000000002,                    !- Thermal Absorptance
  0.69999999999999996,                    !- Solar Absorptance
  0.69999999999999996;                    !- Visible Absorptance

OS:Material,
  {24deca08-8cb6-4893-8383-dbcee6888322}, !- Handle
  Roof Insulation [21],                   !- Name
  MediumRough,                            !- Roughness
  0.21049999999999999,                    !- Thickness {m}
  0.049000000000000002,                   !- Conductivity {W/m-K}
  265,                                    !- Density {kg/m3}
  836.8,                                  !- Specific Heat {J/kg-K}
  0.90000000000000002,                    !- Thermal Absorptance
  0.69999999999999996,                    !- Solar Absorptance
  0.69999999999999996;                    !- Visible Absorptance

OS:Material,
  {340b6dc1-f41f-423c-8621-1c2782e0c0ff}, !- Handle
  Metal Decking,                          !- Name
  MediumSmooth,                           !- Roughness
  0.0015,                                 !- Thickness {m}
  45.006,                                 !- Conductivity {W/m-K}
  7680,                                   !- Density {kg/m3}
  418.4,                                  !- Specific Heat {J/kg-K}
  0.90000000000000002,                    !- Thermal Absorptance
  0.69999999999999996,                    !- Solar Absorptance
  0.29999999999999999;                    !- Visible Absorptance

OS:Material,
  {2d980ee9-fb47-412f-bf49-ba461b3b78a9}, !- Handle
  000_F16 Acoustic tile,                  !- Name
  MediumSmooth,                           !- Roughness
  0.019099999999999999,                   !- Thickness {m}
  0.059999999999999998,                   !- Conductivity {W/m-K}