
OS:Version,
  {11a8eb9a-2221-4f6e-b87e-e9771687553b}, !- Handle
  1.7.5;                                  !- Version Identifier

OS:BuildingStory,
  {a9d78c77-122c-4f18-8385-9964c454b839}, !- Handle
  Story 1,                                !- Name
  0,                                      !- Nominal Z Coordinate {m}
  4,                                      !- Nominal Floor to Floor Height {m}
  ,                                       !- Default Construction Set Name
  ,                                       !- Default Schedule Set Name
  ;                                       !- Group Rendering Name

OS:Space,
  {424f3183-aca0-43e6-8e36-76d1ad52443c}, !- Handle
  Story 1 West Perimeter Space,           !- Name
  ,                                       !- Space Type Name
  ,                                       !- Default Construction Set Name
  ,                                       !- Default Schedule Set Name
  -0,                                     !- Direction of Relative North {deg}
  0,                                      !- X Origin {m}
  0,                                      !- Y Origin {m}
  0,                                      !- Z Origin {m}
  {a9d78c77-122c-4f18-8385-9964c454b839}, !- Building Story Name
  {cd3aa92a-ca95-43ea-ad36-2f8b5a4cd31c}; !- Thermal Zone Name

OS:Surface,
  {d9e84cff-db67-44cd-8d3e-de38eb4c3889}, !- Handle
  Surface 1,                              !- Name
  Floor,                                  !- Surface Type
  ,                                       !- Construction Name
  {424f3183-aca0-43e6-8e36-76d1ad52443c}, !- Space Name
  Ground,                                 !- Outside Boundary Condition
  ,                                       !- Outside Boundary Condition Object
  NoSun,                                  !- Sun Exposure
  NoWind,                                 !- Wind Exposure
  ,                                       !- View Factor to Ground
  ,                                       !- Number of Vertices
  0, 0, 0,                                !- X,Y,Z Vertex 1 {m}
  0, 50, 0,                               !- X,Y,Z Vertex 2 {m}
  3, 47, 0,                               !- X,Y,Z Vertex 3 {m}
  3, 3, 0;                                !- X,Y,Z Vertex 4 {m}

OS:Surface,
  {e7c7f8b2-e132-4912-873e-95227d1ae587}, !- Handle
  Surface 2,                              !- Name
  Wall,                                   !- Surface Type
  ,                                       !- Construction Name
  {424f3183-aca0-43e6-8e36-76d1ad52443c}, !- Space Name
  Outdoors,                               !- Outside Boundary Condition
  ,                                       !- Outside Boundary Condition Object
  SunExposed,                             !- Sun Exposure
  WindExposed,                            !- Wind Exposure
  ,                                       !- View Factor to Ground
  ,                                       !- Number of Vertices
  0, 50, 4,                               !- X,Y,Z Vertex 1 {m}
  0, 50, 0,                               !- X,Y,Z Vertex 2 {m}
  0, 0, 0,                                !- X,Y,Z Vertex 3 {m}
  0, 0, 4;                                !- X,Y,Z Vertex 4 {m}

OS:Surface,
  {764af8ad-c10b-4a82-bbd8-cb877abd8cf2}, !- Handle
  Surface 3,                              !- Name
  Wall,                                   !- Surface Type
  ,                                       !- Construction Name
  {424f3183-aca0-43e6-8e36-76d1ad52443c}, !- Space Name
  Surface,                                !- Outside Boundary Condition
  {049c4cdf-e13b-48eb-a2eb-bfc0be8de8d1}, !- Outside Boundary Condition Object
  NoSun,                                  !- Sun Exposure
  NoWind,                                 !- Wind Exposure
  ,                                       !- View Factor to Ground
  ,                                       !- Number of Vertices
  3, 47, 4,                               !- X,Y,Z Vertex 1 {m}
  3, 47, 0,                               !- X,Y,Z Vertex 2 {m}
  0, 50, 0,                               !- X,Y,Z Vertex 3 {m}
  0, 50, 4;                               !- X,Y,Z Vertex 4 {m}

OS:Surface,
  {64cad2ec-0894-4a55-a0cb-529556bff5f1}, !- Handle
  Surface 4,                              !- Name
  Wall,                                   !- Surface Type
  ,                                       !- Construction Name
  {424f3183-aca0-43e6-8e36-76d1ad52443c}, !- Space Name
  Surface,                                !- Outside Boundary Condition
  {5a76e3f1-e288-41f3-9196-299ec400ed1a}, !- Outside Boundary Condition Object
  NoSun,                                  !- Sun Exposure
  NoWind,                                 !- Wind Exposure
  ,                                       !- View Factor to Ground
  ,                                       !- Number of Vertices
  3, 3, 4,                                !- X,Y,Z Vertex 1 {m}
  3, 3, 0,                                !- X,Y,Z Vertex 2 {m}
  3, 47, 0,                               !- X,Y,Z Vertex 3 {m}
  3, 47, 4;                               !- X,Y,Z Vertex 4 {m}

OS:Surface,
  {efd36faa-7140-4031-84c0-e6e3762b1a9a}, !- Handle
  Surface 5,                              !- Name
  Wall,                                   !- Surface Type
  ,                                       !- Construction Name
  {424f3183-aca0-43e6-8e36-76d1ad52443c}, !- Space Name
  Surface,                                !- Outside Boundary Condition
  {08744ad3-2749-43c5-b778-d94b00387a53}, !- Outside Boundary Condition Object
  NoSun,                                  !- Sun Exposure
  NoWind,                                 !- Wind Exposure
  ,                                       !- View Factor to Ground
  ,                                       !- Number of Vertices
  0, 0, 4,                                !- X,Y,Z Vertex 1 {m}
  0, 0, 0,                                !- X,Y,Z Vertex 2 {m}
  3, 3, 0,                                !- X,Y,Z Vertex 3 {m}
  3, 3, 4;                                !- X,Y,Z Vertex 4 {m}

OS:Surface,
  {22fc4f11-3f4b-4429-b2d2-32e7a424c6ff}, !- Handle
  Surface 6,                              !- Name
  RoofCeiling,                            !- Surface Type
  ,                                       !- Construction Name
  {424f3183-aca0-43e6-8e36-76d1ad52443c}, !- Space Name
  Surface,                                !- Outside Boundary Condition
  {6541cd91-a3c5-421c-8e0a-e3a2f842bf3c}, !- Outside Boundary Condition Object
  NoSun,                                  !- Sun Exposure
  NoWind,                                 !- Wind Exposure
  ,                                       !- View Factor to Ground
  ,                                       !- Number of Vertices
  3, 3, 4,                                !- X,Y,Z Vertex 1 {m}
  3, 47, 4,                               !- X,Y,Z Vertex 2 {m}
  0, 50, 4,                               !- X,Y,Z Vertex 3 {m}
  0, 0, 4;                                !- X,Y,Z Vertex 4 {m}

OS:Space,
  {4a6d4b64-7d46-4bf8-8a09-d4c697f43ec5}, !- Handle
  Story 1 North Perimeter Space,          !- Name
  ,                                       !- Space Type Name
  ,                                       !- Default Construction Set Name
  ,                                       !- Default Schedule Set Name
  -0,                                     !- Direction of Relative North {deg}
  3,                                      !- X Origin {m}
  47,                                     !- Y Origin {m}
  0,                                      !- Z Origin {m}
  {a9d78c77-122c-4f18-8385-9964c454b839}, !- Building Story Name
  {e9308da2-e48b-4728-9a91-6c59802e4437}; !- Thermal Zone Name

OS:Surface,
  {0b96ea1d-7190-4115-a0f7-6e8c4e3f3b99}, !- Handle
  Surface 7,                              !- Name
  Floor,                                  !- Surface Type
  ,                                       !- Construction Name
  {4a6d4b64-7d46-4bf8-8a09-d4c697f43ec5}, !- Space Name
  Ground,                                 !- Outside Boundary Condition
  ,                                       !- Outside Boundary Condition Object
  NoSun,                                  !- Sun Exposure
  NoWind,                                 !- Wind Exposure
  ,                                       !- View Factor to Ground
  ,                                       !- Number of Vertices
  -3, 3, 0,                               !- X,Y,Z Vertex 1 {m}
  97, 3, 0,                               !- X,Y,Z Vertex 2 {m}
  94, 0, 0,                               !- X,Y,Z Vertex 3 {m}
  0, 0, 0;                                !- X,Y,Z Vertex 4 {m}

OS:Surface,
  {b677cc36-8285-464b-993d-c380bc489901}, !- Handle
  Surface 8,                              !- Name
  Wall,                                   !- Surface Type
  ,                                       !- Construction Name
  {4a6d4b64-7d46-4bf8-8a09-d4c697f43ec5}, !- Space Name
  Outdoors,                               !- Outside Boundary Condition
  ,                                       !- Outside Boundary Condition Object
  SunExposed,                             !- Sun Exposure
  WindExposed,                            !- Wind Exposure
  ,                                       !- View Factor to Ground
  ,                                       !- Number of Vertices
  97, 3, 4,                               !- X,Y,Z Vertex 1 {m}
  97, 3, 0,                               !- X,Y,Z Vertex 2 {m}
  -3, 3, 0,                               !- X,Y,Z Vertex 3 {m}
  -3, 3, 4;                               !- X,Y,Z Vertex 4 {m}

OS:Surface,
  {ab65a95b-a017-4aef-87a3-3d1e1e0d46e3}, !- Handle
  Surface 9,                              !- Name
  Wall,                                   !- Surface Type
  ,                                       !- Construction Name
  {4a6d4b64-7d46-4bf8-8a09-d4c697f43ec5}, !- Space Name
  Surface,                                !- Outside Boundary Condition
  {c2839946-c1ed-4a09-9bdf-72d2fc1e6f20}, !- Outside Boundary Condition Object
  NoSun,                                  !- Sun Exposure
  NoWind,                                 !- Wind Exposure
  ,                                       !- View Factor to Ground
  ,                                       !- Number of Vertices
  94, 0, 4,                               !- X,Y,Z Vertex 1 {m}
  94, 0, 0,                               !- X,Y,Z Vertex 2 {m}
  97, 3, 0,                               !- X,Y,Z Vertex 3 {m}
  97, 3, 4;                               !- X,Y,Z Vertex 4 {m}

OS:Surface,
  {ed1420c6-5629-46df-ae7f-b6eb52a31caf}, !- Handle
  Surface 10,                             !- Name
  Wall,                                   !- Surface Type
  ,                                       !- Construction Name
  {4a6d4b64-7d46-4bf8-8a09-d4c697f43ec5}, !- Space Name
  Surface,                                !- Outside Boundary Condition
  {03138730-795e-4d2b-8361-4082e7f66b0d}, !- Outside Boundary Condition Object
  NoSun,                                  !- Sun Exposure
  NoWind,                                 !- Wind Exposure
  ,                                       !- View Factor to Ground
  ,                                       !- Number of Vertices
  0, 0, 4,                                !- X,Y,Z Vertex 1 {m}
  0, 0, 0,                                !- X,Y,Z Vertex 2 {m}
  94, 0, 0,                               !- X,Y,Z Vertex 3 {m}
  94, 0, 4;                               !- X,Y,Z Vertex 4 {m}

OS:Surface,
  {049c4cdf-e13b-48eb-a2eb-bfc0be8de8d1}, !- Handle
  Surface 11,                             !- Name
  Wall,                                   !- Surface Type
  ,                                       !- Construction Name
  {4a6d4b64-7d46-4bf8-8a09-d4c697f43ec5}, !- Space Name
  Surface,                                !- Outside Boundary Condition
  {764af8ad-c10b-4a82-bbd8-cb877abd8cf2}, !- Outside Boundary Condition Object
  NoSun,                                  !- Sun Exposure
  NoWind,                                 !- Wind Exposure
  ,                                       !- View Factor to Ground
  ,                                       !- Number of Vertices
  -3, 3, 4,                               !- X,Y,Z Vertex 1 {m}
  -3, 3, 0,                               !- X,Y,Z Vertex 2 {m}
  0, 0, 0,                                !- X,Y,Z Vertex 3 {m}
  0, 0, 4;                                !- X,Y,Z Vertex 4 {m}

OS:Surface,
  {1b7c1a98-8be1-4b43-8bfe-5ec17e43defe}, !- Handle
  Surface 12,                             !- Name
  RoofCeiling,                            !- Surface Type
  ,                                       !- Construction Name
  {4a6d4b64-7d46-4bf8-8a09-d4c697f43ec5}, !- Space Name
  Surface,                                !- Outside Boundary Condition
  {d0ee0acc-cdfb-4553-b3b8-d1d098a60b98}, !- Outside Boundary Condition Object
  NoSun,                                  !- Sun Exposure
  NoWind,                                 !- Wind Exposure
  ,                                       !- View Factor to Ground
  ,                                       !- Number of Vertices
  0, 0, 4,                                !- X,Y,Z Vertex 1 {m}
  94, 0, 4,                               !- X,Y,Z Vertex 2 {m}
  97, 3, 4,                               !- X,Y,Z Vertex 3 {m}
  -3, 3, 4;                               !- X,Y,Z Vertex 4 {m}

OS:Space,
  {0252d653-bbd5-4ae9-b099-c3b82a1ff975}, !- Handle
  Story 1 East Perimeter Space,           !- Name
  ,                                       !- Space Type Name
  ,                                       !- Default Construction Set Name
  ,                                       !- Default Schedule Set Name
  -0,                                     !- Direction of Relative North {deg}
  97,                                     !- X Origin {m}
  3,                                      !- Y Origin {m}
  0,                                      !- Z Origin {m}
  {a9d78c77-122c-4f18-8385-9964c454b839}, !- Building Story Name
  {5200de7c-8088-451e-a402-16d32a7c7750}; !- Thermal Zone Name

OS:Surface,
  {4abbe321-56b1-425a-bad6-fd04f8304b11}, !- Handle
  Surface 13,                             !- Name
  Floor,                                  !- Surface Type
  ,                                       !- Construction Name
  {0252d653-bbd5-4ae9-b099-c3b82a1ff975}, !- Space Name
  Ground,                                 !- Outside Boundary Condition
  ,                                       !- Outside Boundary Condition Object
  NoSun,                                  !- Sun Exposure
  NoWind,                                 !- Wind Exposure
  ,                                       !- View Factor to Ground
  ,                                       !- Number of Vertices
  3, 47, 0,                               !- X,Y,Z Vertex 1 {m}
  3, -3, 0,                               !- X,Y,Z Vertex 2 {m}
  0, 0, 0,                                !- X,Y,Z Vertex 3 {m}
  0, 44, 0;                               !- X,Y,Z Vertex 4 {m}

OS:Surface,
  {3f4fc22e-ee1f-43ab-a4f7-9ffc7fef7b72}, !- Handle
  Surface 14,                             !- Name
  Wall,                                   !- Surface Type
  ,                                       !- Construction Name
  {0252d653-bbd5-4ae9-b099-c3b82a1ff975}, !- Space Name
  Outdoors,                               !- Outside Boundary Condition
  ,                                       !- Outside Boundary Condition Object
  SunExposed,                             !- Sun Exposure
  WindExposed,                            !- Wind Exposure
  ,                                       !- View Factor to Ground
  ,                                       !- Number of Vertices
  3, -3, 4,                               !- X,Y,Z Vertex 1 {m}
  3, -3, 0,                               !- X,Y,Z Vertex 2 {m}
  3, 47, 0,                               !- X,Y,Z Vertex 3 {m}
  3, 47, 4;                               !- X,Y,Z Vertex 4 {m}

OS:Surface,
  {622285b9-f425-4ded-8ca7-7e0e800ebad0}, !- Handle
  Surface 15,                             !- Name
  Wall,                                   !- Surface Type
  ,                                       !- Construction Name
  {0252d653-bbd5-4ae9-b099-c3b82a1ff975}, !- Space Name
  Surface,                                !- Outside Boundary Condition
  {98ea181b-eb9b-4c60-bac8-1fb62b735493}, !- Outside Boundary Condition Object
  NoSun,                                  !- Sun Exposure
  NoWind,                                 !- Wind Exposure
  ,                                       !- View Factor to Ground
  ,                                       !- Number of Vertices
  0, 0, 4,                                !- X,Y,Z Vertex 1 {m}
  0, 0, 0,                                !- X,Y,Z Vertex 2 {m}
  3, -3, 0,                               !- X,Y,Z Vertex 3 {m}
  3, -3, 4;                               !- X,Y,Z Vertex 4 {m}

OS:Surface,
  {6419976f-7477-44e7-a4ba-82b0679b768d}, !- Handle
  Surface 16,                             !- Name
  Wall,                                   !- Surface Type
  ,                                       !- Construction Name
  {0252d653-bbd5-4ae9-b099-c3b82a1ff975}, !- Space Name
  Surface,                                !- Outside Boundary Condition
  {4827b80a-54a3-4a60-8d26-202ac69915d0}, !- Outside Boundary Condition Object
  NoSun,                                  !- Sun Exposure
  NoWind,                                 !- Wind Exposure
  ,                                       !- View Factor to Ground
  ,                                       !- Number of Vertices
  0, 44, 4,                               !- X,Y,Z Vertex 1 {m}
  0, 44, 0,                               !- X,Y,Z Vertex 2 {m}
  0, 0, 0,                                !- X,Y,Z Vertex 3 {m}
  0, 0, 4;                                !- X,Y,Z Vertex 4 {m}

OS:Surface,
  {c2839946-c1ed-4a09-9bdf-72d2fc1e6f20}, !- Handle
  Surface 17,                             !- Name
  Wall,                                   !- Surface Type
  ,                                       !- Construction Name
  {0252d653-bbd5-4ae9-b099-c3b82a1ff975}, !- Space Name
  Surface,                                !- Outside Boundary Condition
  {ab65a95b-a017-4aef-87a3-3d1e1e0d46e3}, !- Outside Boundary Condition Object
  NoSun,                                  !- Sun Exposure
  NoWind,                                 !- Wind Exposure
  ,                                       !- View Factor to Ground
  ,                                       !- Number of Vertices
  3, 47, 4,                               !- X,Y,Z Vertex 1 {m}
  3, 47, 0,                               !- X,Y,Z Vertex 2 {m}
  0, 44, 0,                               !- X,Y,Z Vertex 3 {m}
  0, 44, 4;                               !- X,Y,Z Vertex 4 {m}

OS:Surface,
  {50421996-b878-422c-a8da-aaf580915fa4}, !- Handle
  Surface 18,                             !- Name
  RoofCeiling,                            !- Surface Type
  ,                                       !- Construction Name
  {0252d653-bbd5-4ae9-b099-c3b82a1ff975}, !- Space Name
  Surface,                                !- Outside Boundary Condition
  {416b11a3-3d9c-4244-8844-e2302a31862a}, !- Outside Boundary Condition Object
  NoSun,                                  !- Sun Exposure
  NoWind,                                 !- Wind Exposure
  ,                                       !- View Factor to Ground
  ,                                       !- Number of Vertices
  0, 44, 4,                               !- X,Y,Z Vertex 1 {m}
  0, 0, 4,                                !- X,Y,Z Vertex 2 {m}
  3, -3, 4,                               !- X,Y,Z Vertex 3 {m}
  3, 47, 4;                               !- X,Y,Z Vertex 4 {m}

OS:Space,
  {6d60d2c8-8fba-4df5-81b5-2d247a272812}, !- Handle
  Story 1 South Perimeter Space,          !- Name
  ,                                       !- Space Type Name
  ,                                       !- Default Construction Set Name
  ,                                       !- Default Schedule Set Name
  -0,                                     !- Direction of Relative North {deg}
  0,                                      !- X Origin {m}
  0,                                      !- Y Origin {m}
  0,                                      !- Z Origin {m}
  {a9d78c77-122c-4f18-8385-9964c454b839}, !- Building Story Name
  {7be7dd5c-d209-497d-9833-969ff85c7c43}; !- Thermal Zone Name

OS:Surface,
  {e262a1cd-3644-4cea-a4fd-f0636e5b0cb2}, !- Handle
  Surface 19,                             !- Name
  Floor,                                  !- Surface Type
  ,                                       !- Construction Name
  {6d60d2c8-8fba-4df5-81b5-2d247a272812}, !- Space Name
  Ground,                                 !- Outside Boundary Condition
  ,                                       !- Outside Boundary Condition Object
  NoSun,                                  !- Sun Exposure
  NoWind,                                 !- Wind Exposure
  ,                                       !- View Factor to Ground
  ,                                       !- Number of Vertices
  100, 0, 0,                              !- X,Y,Z Vertex 1 {m}
  0, 0, 0,                                !- X,Y,Z Vertex 2 {m}
  3, 3, 0,                                !- X,Y,Z Vertex 3 {m}
  97, 3, 0;                               !- X,Y,Z Vertex 4 {m}

OS:Surface,
  {496d246c-653f-4a05-b270-b398051fe10a}, !- Handle
  Surface 20,                             !- Name
  Wall,                                   !- Surface Type
  ,                                       !- Construction Name
  {6d60d2c8-8fba-4df5-81b5-2d247a272812}, !- Space Name
  Outdoors,                               !- Outside Boundary Condition
  ,                                       !- Outside Boundary Condition Object
  SunExposed,                             !- Sun Exposure
  WindExposed,                            !- Wind Exposure
  ,                                       !- View Factor to Ground
  ,                                       !- Number of Vertices
  0, 0, 4,                                !- X,Y,Z Vertex 1 {m}
  0, 0, 0,                                !- X,Y,Z Vertex 2 {m}
  100, 0, 0,                              !- X,Y,Z Vertex 3 {m}
  100, 0, 4;                              !- X,Y,Z Vertex 4 {m}

OS:Surface,
  {08744ad3-2749-43c5-b778-d94b00387a53}, !- Handle
  Surface 21,                             !- Name
  Wall,                                   !- Surface Type
  ,                                       !- Construction Name
  {6d60d2c8-8fba-4df5-81b5-2d247a272812}, !- Space Name
  Surface,                                !- Outside Boundary Condition
  {efd36faa-7140-4031-84c0-e6e3762b1a9a}, !- Outside Boundary Condition Object
  NoSun,                                  !- Sun Exposure
  NoWind,                                 !- Wind Exposure
  ,                                       !- View Factor to Ground
  ,                                       !- Number of Vertices
  3, 3, 4,                                !- X,Y,Z Vertex 1 {m}
  3, 3, 0,                                !- X,Y,Z Vertex 2 {m}
  0, 0, 0,                                !- X,Y,Z Vertex 3 {m}
  0, 0, 4;                                !- X,Y,Z Vertex 4 {m}

OS:Surface,
  {89a10c86-d784-4610-85b1-7123b9956f89}, !- Handle
  Surface 22,                             !- Name
  Wall,                                   !- Surface Type
  ,                                       !- Construction Name
  {6d60d2c8-8fba-4df5-81b5-2d247a272812}, !- Space Name
  Surface,                                !- Outside Boundary Condition
  {02c8b421-3eff-4698-97a6-03a6ab2a61ac}, !- Outside Boundary Condition Object
  NoSun,                                  !- Sun Exposure
  NoWind,                                 !- Wind Exposure
  ,                                       !- View Factor to Ground
  ,                                       !- Number of Vertices
  97, 3, 4,                               !- X,Y,Z Vertex 1 {m}
  97, 3, 0,                               !- X,Y,Z Vertex 2 {m}
  3, 3, 0,                                !- X,Y,Z Vertex 3 {m}
  3, 3, 4;                                !- X,Y,Z Vertex 4 {m}

OS:Surface,
  {98ea181b-eb9b-4c60-bac8-1fb62b735493}, !- Handle
  Surface 23,                             !- Name
  Wall,                                   !- Surface Type
  ,                                       !- Construction Name
  {6d60d2c8-8fba-4df5-81b5-2d247a272812}, !- Space Name
  Surface,                                !- Outside Boundary Condition
  {622285b9-f425-4ded-8ca7-7e0e800ebad0}, !- Outside Boundary Condition Object
  NoSun,                                  !- Sun Exposure
  NoWind,                                 !- Wind Exposure
  ,                                       !- View Factor to Ground
  ,                                       !- Number of Vertices
  100, 0, 4,                              !- X,Y,Z Vertex 1 {m}
  100, 0, 0,                              !- X,Y,Z Vertex 2 {m}
  97, 3, 0,                               !- X,Y,Z Vertex 3 {m}
  97, 3, 4;                               !- X,Y,Z Vertex 4 {m}

OS:Surface,
  {1afd054c-2c7d-457c-addf-ab0de9c4daba}, !- Handle
  Surface 24,                             !- Name
  RoofCeiling,                            !- Surface Type
  ,                                       !- Construction Name
  {6d60d2c8-8fba-4df5-81b5-2d247a272812}, !- Space Name
  Surface,                                !- Outside Boundary Condition
  {e9b1bc8d-3219-43e5-af1e-4a2b9b57b5fb}, !- Outside Boundary Condition Object
  NoSun,                                  !- Sun Exposure
  NoWind,                                 !- Wind Exposure
  ,                                       !- View Factor to Ground
  ,                                       !- Number of Vertices
  97, 3, 4,                               !- X,Y,Z Vertex 1 {m}
  3, 3, 4,                                !- X,Y,Z Vertex 2 {m}
  0, 0, 4,                                !- X,Y,Z Vertex 3 {m}
  100, 0, 4;                              !- X,Y,Z Vertex 4 {m}

OS:Space,
  {3927d483-6417-42f2-8a76-bfb09404e6f3}, !- Handle
  Story 1 Core Space,                     !- Name
  ,                                       !- Space Type Name
  ,                                       !- Default Construction Set Name
  ,                                       !- Default Schedule Set Name
  -0,                                     !- Direction of Relative North {deg}
  3,                                      !- X Origin {m}
  3,                                      !- Y Origin {m}
  0,                                      !- Z Origin {m}
  {a9d78c77-122c-4f18-8385-9964c454b839}, !- Building Story Name
  {ff275210-c9c9-487b-a68b-7cbed2cd3648}; !- Thermal Zone Name

OS:Surface,
  {7d3f0089-ee38-443d-86c0-c181d4aaaf5d}, !- Handle
  Surface 25,                             !- Name
  Floor,                                  !- Surface Type
  ,                                       !- Construction Name
  {3927d483-6417-42f2-8a76-bfb09404e6f3}, !- Space Name
  Ground,                                 !- Outside Boundary Condition
  ,                                       !- Outside Boundary Condition Object
  NoSun,                                  !- Sun Exposure
  NoWind,                                 !- Wind Exposure
  ,                                       !- View Factor to Ground
  ,                                       !- Number of Vertices
  0, 0, 0,                                !- X,Y,Z Vertex 1 {m}
  0, 44, 0,                               !- X,Y,Z Vertex 2 {m}
  94, 44, 0,                              !- X,Y,Z Vertex 3 {m}
  94, 0, 0;                               !- X,Y,Z Vertex 4 {m}

OS:Surface,
  {5a76e3f1-e288-41f3-9196-299ec400ed1a}, !- Handle
  Surface 26,                             !- Name
  Wall,                                   !- Surface Type
  ,                                       !- Construction Name
  {3927d483-6417-42f2-8a76-bfb09404e6f3}, !- Space Name
  Surface,                                !- Outside Boundary Condition
  {64cad2ec-0894-4a55-a0cb-529556bff5f1}, !- Outside Boundary Condition Object
  NoSun,                                  !- Sun Exposure
  NoWind,                                 !- Wind Exposure
  ,                                       !- View Factor to Ground
  ,                                       !- Number of Vertices
  0, 44, 4,                               !- X,Y,Z Vertex 1 {m}
  0, 44, 0,                               !- X,Y,Z Vertex 2 {m}
  0, 0, 0,                                !- X,Y,Z Vertex 3 {m}
  0, 0, 4;                                !- X,Y,Z Vertex 4 {m}

OS:Surface,
  {03138730-795e-4d2b-8361-4082e7f66b0d}, !- Handle
  Surface 27,                             !- Name
  Wall,                                   !- Surface Type
  ,                                       !- Construction Name
  {3927d483-6417-42f2-8a76-bfb09404e6f3}, !- Space Name
  Surface,                                !- Outside Boundary Condition
  {ed1420c6-5629-46df-ae7f-b6eb52a31caf}, !- Outside Boundary Condition Object
  NoSun,                                  !- Sun Exposure
  NoWind,                                 !- Wind Exposure
  ,                                       !- View Factor to Ground
  ,                                       !- Number of Vertices
  94, 44, 4,                              !- X,Y,Z Vertex 1 {m}
  94, 44, 0,                              !- X,Y,Z Vertex 2 {m}
  0, 44, 0,                               !- X,Y,Z Vertex 3 {m}
  0, 44, 4;                               !- X,Y,Z Vertex 4 {m}

OS:Surface,
  {4827b80a-54a3-4a60-8d26-202ac69915d0}, !- Handle
  Surface 28,                             !- Name
  Wall,                                   !- Surface Type
  ,                                       !- Construction Name
  {3927d483-6417-42f2-8a76-bfb09404e6f3}, !- Space Name