
OS:Version,
  {41a75b67-bb47-4ea2-bd11-be1fd09038fd}, !- Handle
  3.6.0;                                  !- Version Identifier

OS:BuildingStory,
  {85e9ecda-9bde-42b6-ab6e-1316648a2ed2}, !- Handle
  Story 1,                                !- Name
  0,                                      !- Nominal Z Coordinate {m}
  4,                                      !- Nominal Floor to Floor Height {m}
  ,                                       !- Default Construction Set Name
  ,                                       !- Default Schedule Set Name
  ;                                       !- Group Rendering Name

OS:Space,
  {fb0a41a5-5569-4180-a27d-8870e25dce64}, !- Handle
  Story 1 Core Space,                     !- Name
  ,                                       !- Space Type Name
  ,                                       !- Default Construction Set Name
  ,                                       !- Default Schedule Set Name
  -0,                                     !- Direction of Relative North {deg}
  0,                                      !- X Origin {m}
  0,                                      !- Y Origin {m}
  0,                                      !- Z Origin {m}
  {85e9ecda-9bde-42b6-ab6e-1316648a2ed2}, !- Building Story Name
  {aead314b-49f9-4f80-bd16-93bc7576fbf6}; !- Thermal Zone Name

OS:Surface,
  {55184180-b9be-43d6-af0a-01dc0eab6847}, !- Handle
  Story 1 Core Space Exterior Ground Floor, !- Name
  Floor,                                  !- Surface Type
  ,                                       !- Construction Name
  {fb0a41a5-5569-4180-a27d-8870e25dce64}, !- Space Name
  Ground,                                 !- Outside Boundary Condition
  ,                                       !- Outside Boundary Condition Object
  NoSun,                                  !- Sun Exposure
  NoWind,                                 !- Wind Exposure
  ,                                       !- View Factor to Ground
  ,                                       !- Number of Vertices
  0, 0, 0,                                !- X,Y,Z Vertex 1 {m}
  0, 50, 0,                               !- X,Y,Z Vertex 2 {m}
  100, 50, 0,                             !- X,Y,Z Vertex 3 {m}
  100, 0, 0;                              !- X,Y,Z Vertex 4 {m}

OS:Surface,
  {51de7ca7-6317-4807-be4f-023da8c1362d}, !- Handle
  Story 1 Core Space Exterior Wall 3,     !- Name
  Wall,                                   !- Surface Type
  ,                                       !- Construction Name
  {fb0a41a5-5569-4180-a27d-8870e25dce64}, !- Space Name
  Outdoors,                               !- Outside Boundary Condition
  ,                                       !- Outside Boundary Condition Object
  SunExposed,                             !- Sun Exposure
  WindExposed,                            !- Wind Exposure
  ,                                       !- View Factor to Ground
  ,                                       !- Number of Vertices
  0, 50, 4,                               !- X,Y,Z Vertex 1 {m}
  0, 50, 0,                               !- X,Y,Z Vertex 2 {m}
  0, 0, 0,                                !- X,Y,Z Vertex 3 {m}
  0, 0, 4;                                !- X,Y,Z Vertex 4 {m}

OS:Surface,
  {59983329-a260-45b0-a0b8-1261d8b30d63}, !- Handle
  Story 1 Core Space Exterior Wall 2,     !- Name
  Wall,                                   !- Surface Type
  ,                                       !- Construction Name
  {fb0a41a5-5569-4180-a27d-8870e25dce64}, !- Space Name
  Outdoors,                               !- Outside Boundary Condition
  ,                                       !- Outside Boundary Condition Object
  SunExposed,                             !- Sun Exposure
  WindExposed,                            !- Wind Exposure
  ,                                       !- View Factor to Ground
  ,                                       !- Number of Vertices
  100, 50, 4,                             !- X,Y,Z Vertex 1 {m}
  100, 50, 0,                             !- X,Y,Z Vertex 2 {m}
  0, 50, 0,                               !- X,Y,Z Vertex 3 {m}
  0, 50, 4;                               !- X,Y,Z Vertex 4 {m}

OS:Surface,
  {bc2ea00b-ac02-4cbf-859e-fd2eb3dd416c}, !- Handle
  Story 1 Core Space Exterior Wall 1,     !- Name
  Wall,                                   !- Surface Type
  ,                                       !- Construction Name
  {fb0a41a5-5569-4180-a27d-8870e25dce64}, !- Space Name
  Outdoors,                               !- Outside Boundary Condition
  ,                                       !- Outside Boundary Condition Object
  SunExposed,                             !- Sun Exposure
  WindExposed,                            !- Wind Exposure
  ,                                       !- View Factor to Ground
  ,                                       !- Number of Vertices
  100, 0, 4,                              !- X,Y,Z Vertex 1 {m}
  100, 0, 0,                              !- X,Y,Z Vertex 2 {m}
  100, 50, 0,                             !- X,Y,Z Vertex 3 {m}
  100, 50, 4;                             !- X,Y,Z Vertex 4 {m}

OS:Surface,
  {6f3a87d0-4484-417d-9786-d0f25eeb3436}, !- Handle
  Story 1 Core Space Exterior Wall,       !- Name
  Wall,                                   !- Surface Type
  ,                                       !- Construction Name
  {fb0a41a5-5569-4180-a27d-8870e25dce64}, !- Space Name
  Outdoors,                               !- Outside Boundary Condition
  ,                                       !- Outside Boundary Condition Object
  SunExposed,                             !- Sun Exposure
  WindExposed,                            !- Wind Exposure
  ,                                       !- View Factor to Ground
  ,                                       !- Number of Vertices
  0, 0, 4,                                !- X,Y,Z Vertex 1 {m}
  0, 0, 0,                                !- X,Y,Z Vertex 2 {m}
  100, 0, 0,                              !- X,Y,Z Vertex 3 {m}
  100, 0, 4;                              !- X,Y,Z Vertex 4 {m}

OS:Surface,
  {33324ade-dcd9-4f4d-a264-f705792773a5}, !- Handle
  Story 1 Core Space Exterior Roof,       !- Name
  RoofCeiling,                            !- Surface Type
  ,                                       !- Construction Name
  {fb0a41a5-5569-4180-a27d-8870e25dce64}, !- Space Name
  Outdoors,                               !- Outside Boundary Condition
  ,                                       !- Outside Boundary Condition Object
  SunExposed,                             !- Sun Exposure
  WindExposed,                            !- Wind Exposure
  ,                                       !- View Factor to Ground
  ,                                       !- Number of Vertices
  100, 0, 4,                              !- X,Y,Z Vertex 1 {m}
  100, 50, 4,                             !- X,Y,Z Vertex 2 {m}
  0, 50, 4,                               !- X,Y,Z Vertex 3 {m}
  0, 0, 4;                                !- X,Y,Z Vertex 4 {m}

OS:ThermalZone,
  {aead314b-49f9-4f80-bd16-93bc7576fbf6}, !- Handle
  Story 1 Core Thermal Zone,              !- Name
  ,                                       !- Multiplier
  ,                                       !- Ceiling Height {m}
  ,                                       !- Volume {m3}
  ,                                       !- Floor Area {m2}
  ,                                       !- Zone Inside Convection Algorithm
  ,                                       !- Zone Outside Convection Algorithm
  ,                                       !- Zone Conditioning Equipment List Name
  {bf314e76-f4ed-4cc1-aa0d-bd01ecccd00a}, !- Zone Air Inlet Port List
  {2b3ea7fd-2f07-4667-916f-e35d1b74de20}, !- Zone Air Exhaust Port List
  {2c99b485-84e5-4a60-9fb4-f87f0547b19a}, !- Zone Air Node Name
  {aee52a09-73c5-4bb7-bff8-cabb43383325}, !- Zone Return Air Port List
  ,                                       !- Primary Daylighting Control Name
  ,                                       !- Fraction of Zone Controlled by Primary Daylighting Control
  ,                                       !- Secondary Daylighting Control Name
  ,                                       !- Fraction of Zone Controlled by Secondary Daylighting Control
  ,                                       !- Illuminance Map Name
  ,                                       !- Group Rendering Name
  {ec95f8f3-021f-49d6-a72f-46055eb388ad}, !- Thermostat Name
  No;                                     !- Use Ideal Air Loads

OS:Node,
  {e3ebf278-76cb-4fc3-892c-2269565d8553}, !- Handle
  Node 1,                                 !- Name
  {2c99b485-84e5-4a60-9fb4-f87f0547b19a}, !- Inlet Port
  ;                                       !- Outlet Port

OS:Connection,
  {2c99b485-84e5-4a60-9fb4-f87f0547b19a}, !- Handle
  {aead314b-49f9-4f80-bd16-93bc7576fbf6}, !- Source Object
  11,                                     !- Outlet Port
  {e3ebf278-76cb-4fc3-892c-2269565d8553}, !- Target Object
  2;                                      !- Inlet Port

OS:PortList,
  {bf314e76-f4ed-4cc1-aa0d-bd01ecccd00a}, !- Handle
  {aead314b-49f9-4f80-bd16-93bc7576fbf6}, !- HVAC Component
  {bab9d634-7e07-432b-a875-9013e381e807}; !- Port 1

OS:PortList,
  {2b3ea7fd-2f07-4667-916f-e35d1b74de20}, !- Handle
  {aead314b-49f9-4f80-bd16-93bc7576fbf6}, !- HVAC Component
  {3c066a70-2a20-4972-95a8-a2d68aaf8738}; !- Port 1

OS:PortList,
  {aee52a09-73c5-4bb7-bff8-cabb43383325}, !- Handle
  {aead314b-49f9-4f80-bd16-93bc7576fbf6}; !- HVAC Component

OS:Sizing:Zone,
  {f2302d1f-ea14-45c0-96a9-c62375e61b46}, !- Handle
  {aead314b-49f9-4f80-bd16-93bc7576fbf6}, !- Zone or ZoneList Name
  SupplyAirTemperature,                   !- Zone Cooling Design Supply Air Temperature Input Method
  14,                                     !- Zone Cooling Design Supply Air Temperature {C}
  11.11,                                  !- Zone Cooling Design Supply Air Temperature Difference {deltaC}
  SupplyAirTemperature,                   !- Zone Heating Design Supply Air Temperature Input Method
  40,                                     !- Zone Heating Design Supply Air Temperature {C}
  11.11,                                  !- Zone Heating Design Supply Air Temperature Difference {deltaC}
  0.0085,                                 !- Zone Cooling Design Supply Air Humidity Ratio {kg-H2O/kg-air}
  0.008,                                  !- Zone Heating Design Supply Air Humidity Ratio {kg-H2O/kg-air}
  ,                                       !- Zone Heating Sizing Factor
  ,                                       !- Zone Cooling Sizing Factor
  DesignDay,                              !- Cooling Design Air Flow Method
  ,                                       !- Cooling Design Air Flow Rate {m3/s}
  ,                                       !- Cooling Minimum Air Flow per Zone Floor Area {m3/s-m2}
  ,                                       !- Cooling Minimum Air Flow {m3/s}
  ,                                       !- Cooling Minimum Air Flow Fraction
  DesignDay,                              !- Heating Design Air Flow Method
  ,                                       !- Heating Design Air Flow Rate {m3/s}
  ,                                       !- Heating Maximum Air Flow per Zone Floor Area {m3/s-m2}
  ,                                       !- Heating Maximum Air Flow {m3/s}
  ,                                       !- Heating Maximum Air Flow Fraction
  No,                                     !- Account for Dedicated Outdoor Air System
  NeutralSupplyAir,                       !- Dedicated Outdoor Air System Control Strategy
  autosize,                               !- Dedicated Outdoor Air Low Setpoint Temperature for Design {C}
  autosize,                               !- Dedicated Outdoor Air High Setpoint Temperature for Design {C}
  Sensible Load Only No Latent Load,      !- Zone Load Sizing Method
  HumidityRatioDifference,                !- Zone Latent Cooling Design Supply Air Humidity Ratio Input Method
  ,                                       !- Zone Dehumidification Design Supply Air Humidity Ratio {kgWater/kgDryAir}
  0.005,                                  !- Zone Cooling Design Supply Air Humidity Ratio Difference {kgWater/kgDryAir}
  HumidityRatioDifference,                !- Zone Latent Heating Design Supply Air Humidity Ratio Input Method
  ,                                       !- Zone Humidification Design Supply Air Humidity Ratio {kgWater/kgDryAir}
  0.005;                                  !- Zone Humidification Design Supply Air Humidity Ratio Difference {kgWater/kgDryAir}

OS:ZoneHVAC:EquipmentList,
  {ffa1011f-cfe7-4f9c-87bc-afa14bb96a34}, !- Handle
  Zone HVAC Equipment List 1,             !- Name
  {aead314b-49f9-4f80-bd16-93bc7576fbf6}, !- Thermal Zone
  ,                                       !- Load Distribution Scheme
  {eab71776-0aff-4586-84db-37837898324e}, !- Zone Equipment 1
  1,                                      !- Zone Equipment Cooling Sequence 1
  1,                                      !- Zone Equipment Heating or No-Load Sequence 1
  ,                                       !- Zone Equipment Sequential Cooling Fraction Schedule Name 1
  ;                                       !- Zone Equipment Sequential Heating Fraction Schedule Name 1

OS:SubSurface,
  {4bf09643-8f33-4663-8a2c-fedbb2ae53c3}, !- Handle
  Story 1 Core Space Exterior Wall Window, !- Name
  FixedWindow,                            !- Sub Surface Type
  ,                                       !- Construction Name
  {6f3a87d0-4484-417d-9786-d0f25eeb3436}, !- Surface Name
  ,                                       !- Outside Boundary Condition Object
  ,                                       !- View Factor to Ground
  ,                                       !- Frame and Divider Name
  ,                                       !- Multiplier
  ,                                       !- Number of Vertices
  0.0254, 0, 2.60081321311226,            !- X,Y,Z Vertex 1 {m}
  0.0254, 0, 1,                           !- X,Y,Z Vertex 2 {m}
  99.9746, 0, 1,                          !- X,Y,Z Vertex 3 {m}
  99.9746, 0, 2.60081321311226;           !- X,Y,Z Vertex 4 {m}

OS:SubSurface,
  {8d686878-5d7a-4ed9-99a4-db95998424d6}, !- Handle
  Story 1 Core Space Exterior Wall 1 Window, !- Name
  FixedWindow,                            !- Sub Surface Type
  ,                                       !- Construction Name
  {bc2ea00b-ac02-4cbf-859e-fd2eb3dd416c}, !- Surface Name
  ,                                       !- Outside Boundary Condition Object
  ,                                       !- View Factor to Ground
  ,                                       !- Frame and Divider Name
  ,                                       !- Multiplier
  ,                                       !- Number of Vertices
  100, 0.0254, 2.60162725328934,          !- X,Y,Z Vertex 1 {m}
  100, 0.0254, 1,                         !- X,Y,Z Vertex 2 {m}
  100, 49.9746, 1,                        !- X,Y,Z Vertex 3 {m}
  100, 49.9746, 2.60162725328934;         !- X,Y,Z Vertex 4 {m}

OS:SubSurface,
  {4321b22d-6bc3-47d5-b017-51e66220c543}, !- Handle
  Story 1 Core Space Exterior Wall 2 Window, !- Name
  FixedWindow,                            !- Sub Surface Type
  ,                                       !- Construction Name
  {59983329-a260-45b0-a0b8-1261d8b30d63}, !- Surface Name
  ,                                       !- Outside Boundary Condition Object
  ,                                       !- View Factor to Ground
  ,                                       !- Frame and Divider Name
  ,                                       !- Multiplier
  ,                                       !- Number of Vertices
  99.9746, 50, 2.60081321311226,          !- X,Y,Z Vertex 1 {m}
  99.9746, 50, 1,                         !- X,Y,Z Vertex 2 {m}
  0.0253999999999905, 50, 1,              !- X,Y,Z Vertex 3 {m}
  0.0253999999999905, 50, 2.60081321311226; !- X,Y,Z Vertex 4 {m}

OS:SubSurface,
  {5c0dd822-ac9a-4460-b138-dc0b0190675b}, !- Handle
  Story 1 Core Space Exterior Wall 3 Window, !- Name
  FixedWindow,                            !- Sub Surface Type
  ,                                       !- Construction Name
  {51de7ca7-6317-4807-be4f-023da8c1362d}, !- Surface Name
  ,                                       !- Outside Boundary Condition Object
  ,                                       !- View Factor to Ground
  ,                                       !- Frame and Divider Name
  ,                                       !- Multiplier
  ,                                       !- Number of Vertices
  0, 49.9746, 2.60162725328934,           !- X,Y,Z Vertex 1 {m}
  0, 49.9746, 1,                          !- X,Y,Z Vertex 2 {m}
  0, 0.0254000000000048, 1,               !- X,Y,Z Vertex 3 {m}
  0, 0.0254000000000048, 2.60162725328934; !- X,Y,Z Vertex 4 {m}

OS:Schedule:Ruleset,
  {59cd4ddf-e3f7-46db-941c-93d28f025af5}, !- Handle
  Cooling Sch,                            !- Name
  {90ec3ed0-247b-49ea-a514-f9ae901388b6}, !- Schedule Type Limits Name
  {f8f4acf0-56fe-4908-bc68-8fd9da76a28b}; !- Default Day Schedule Name

OS:Schedule:Day,
  {f8f4acf0-56fe-4908-bc68-8fd9da76a28b}, !- Handle
  Cooling Sch Default,                    !- Name
  {90ec3ed0-247b-49ea-a514-f9ae901388b6}, !- Schedule Type Limits Name
  ,                                       !- Interpolate to Timestep
  24,                                     !- Hour 1
  0,                                      !- Minute 1
  28;                                     !- Value Until Time 1

OS:Schedule:Ruleset,
  {d01accf5-c476-4cdc-8ccf-ce78a193bec6}, !- Handle
  Heating Sch,                            !- Name
  {90ec3ed0-247b-49ea-a514-f9ae901388b6}, !- Schedule Type Limits Name
  {ef5b4034-df5a-4128-b3a2-d268e0ec5450}; !- Default Day Schedule Name

OS:Schedule:Day,
  {ef5b4034-df5a-4128-b3a2-d268e0ec5450}, !- Handle
  Heating Sch Default,                    !- Name
  {90ec3ed0-247b-49ea-a514-f9ae901388b6}, !- Schedule Type Limits Name
  ,                                       !- Interpolate to Timestep
  24,                                     !- Hour 1
  0,                                      !- Minute 1
  24;                                     !- Value Until Time 1

OS:ThermostatSetpoint:DualSetpoint,
  {ec95f8f3-021f-49d6-a72f-46055eb388ad}, !- Handle
  Thermostat Setpoint Dual Setpoint 1,    !- Name
  {d01accf5-c476-4cdc-8ccf-ce78a193bec6}, !- Heating Setpoint Temperature Schedule Name
  {59cd4ddf-e3f7-46db-941c-93d28f025af5}; !- Cooling Setpoint Temperature Schedule Name

OS:ScheduleTypeLimits,
  {90ec3ed0-247b-49ea-a514-f9ae901388b6}, !- Handle
  Temperature,                            !- Name
  ,                                       !- Lower Limit Value
  ,                                       !- Upper Limit Value
  Continuous,                             !- Numeric Type
  Temperature;                            !- Unit Type

OS:DefaultConstructionSet,
  {1079d280-fea2-499f-b12e-8379ddac8d5a}, !- Handle
  ASHRAE_189.1-2009_ClimateZone 4-5 (mdoff)_ConstSet, !- Name
  {5364af1e-b972-456f-a550-73773ac34944}, !- Default Exterior Surface Constructions Name
  {d85d4193-01bb-4c83-9c27-479e69379eb8}, !- Default Interior Surface Constructions Name
  {a66a09d8-13d4-413a-917d-eaa2a27a5d0f}, !- Default Ground Contact Surface Constructions Name
  {9664be0e-e0b8-42c3-bf71-f41d6aeab7b0}, !- Default Exterior SubSurface Constructions Name
  {975ef38b-31f3-43b8-aaa6-9de75aa521ce}, !- Default Interior SubSurface Constructions Name
  {ec40a8ce-d456-4a03-8a65-04329b046f30}, !- Interior Partition Construction Name
  ,                                       !- Space Shading Construction Name
  ,                                       !- Building Shading Construction Name
  ,                                       !- Site Shading Construction Name
  ;                                       !- Adiabatic Surface Construction Name

OS:DefaultSurfaceConstructions,
  {5364af1e-b972-456f-a550-73773ac34944}, !- Handle
  ASHRAE_189.1-2009_ClimateZone 4-5 (mdoff)_Exterior_DefSurfCons, !- Name
  {5ed7e067-87fd-4fc3-a065-8407c7875ede}, !- Floor Construction Name
  {adfaf2ef-478d-46a9-91b6-85ec4fff6dd2}, !- Wall Construction Name
  {446be027-5868-4192-a276-a64bf642d150}; !- Roof Ceiling Construction Name

OS:DefaultSurfaceConstructions,
  {d85d4193-01bb-4c83-9c27-479e69379eb8}, !- Handle
  000_Interior_DefSurfCons,               !- Name
  {f5dc85af-2dc3-407f-a7e2-726e163f6e5e}, !- Floor Construction Name
  {3aab5cd4-cb22-480f-a83c-80ca041f5f9d}, !- Wall Construction Name
  {9efe17d8-fc5e-48f2-8312-def69cbfa1d4}; !- Roof Ceiling Construction Name

OS:DefaultSurfaceConstructions,
  {a66a09d8-13d4-413a-917d-eaa2a27a5d0f}, !- Handle
  000_Ground_DefSurfCons,                 !- Name
  {5ed7e067-87fd-4fc3-a065-8407c7875ede}, !- Floor Construction Name
  {5ed7e067-87fd-4fc3-a065-8407c7875ede}, !- Wall Construction Name
  {5ed7e067-87fd-4fc3-a065-8407c7875ede}; !- Roof Ceiling Construction Name

OS:DefaultSubSurfaceConstructions,
  {9664be0e-e0b8-42c3-bf71-f41d6aeab7b0}, !- Handle
  ASHRAE_189.1-2009_ClimateZone 4-5 (mdoff)_Exterior_DefSubCons, !- Name
  {d6a493b4-9b05-4b6a-84cb-32f9629f1cae}, !- Fixed Window Construction Name
  {d6a493b4-9b05-4b6a-84cb-32f9629f1cae}, !- Operable Window Construction Name
  {7d1acabc-8a1e-4d46-a833-90463b182201}, !- Door Construction Name
  {d4d32806-3fb0-4e89-a566-84d736aa129a}, !- Glass Door Construction Name
  ,                                       !- Overhead Door Construction Name
  {d4d32806-3fb0-4e89-a566-84d736aa129a}, !- Skylight Construction Name
  {e2e120d6-02b3-45b5-88fe-e9bc39f1ee7e}, !- Tubular Daylight Dome Construction Name
  {e2e120d6-02b3-45b5-88fe-e9bc39f1ee7e}; !- Tubular Daylight Diffuser Construction Name

OS:DefaultSubSurfaceConstructions,
  {975ef38b-31f3-43b8-aaa6-9de75aa521ce}, !- Handle
  000_Interior_DefSubCons,                !- Name
  {e2e120d6-02b3-45b5-88fe-e9bc39f1ee7e}, !- Fixed Window Construction Name
  {e2e120d6-02b3-45b5-88fe-e9bc39f1ee7e}, !- Operable Window Construction Name
  {27c502d7-30ed-401d-9989-a40fe3f667a0}, !- Door Construction Name
  {d4d32806-3fb0-4e89-a566-84d736aa129a}, !- Glass Door Construction Name
  ,                                       !- Overhead Door Construction Name
  {d4d32806-3fb0-4e89-a566-84d736aa129a}, !- Skylight Construction Name
  {e2e120d6-02b3-45b5-88fe-e9bc39f1ee7e}, !- Tubular Daylight Dome Construction Name
  {e2e120d6-02b3-45b5-88fe-e9bc39f1ee7e}; !- Tubular Daylight Diffuser Construction Name

OS:Construction,
  {ec40a8ce-d456-4a03-8a65-04329b046f30}, !- Handle
  000_Interior Partition,                 !- Name
  ,                                       !- Surface Rendering Name
  {5e79384c-e0e2-4765-b824-fb1de15be59d}; !- Layer 1

OS:Construction,
  {5ed7e067-87fd-4fc3-a065-8407c7875ede}, !- Handle
  000_ExtSlabCarpet_4in_ClimateZone 1-8,  !- Name
  ,                                       !- Surface Rendering Name
  {76dfc4a6-6aa8-4c85-9e85-6f3d9f691afa}, !- Layer 1
  {8d19014e-ec01-4544-bc52-f36b3cb80787}; !- Layer 2

OS:Construction,
  {adfaf2ef-478d-46a9-91b6-85ec4fff6dd2}, !- Handle
  ASHRAE_189.1-2009_ExtWall_SteelFrame_ClimateZone 4-8, !- Name
  ,                                       !- Surface Rendering Name
  {71cce3a0-741a-46c4-a640-8abe35592802}, !- Layer 1
  {dab66aaf-2286-4f8f-8140-7ff56a181d05}, !- Layer 2
  {f9c92464-f70c-4235-bc95-3fa7effd89d4}; !- Layer 3

OS:Construction,
  {446be027-5868-4192-a276-a64bf642d150}, !- Handle
  ASHRAE_189.1-2009_ExtRoof_IEAD_ClimateZone 2-5, !- Name
  ,                                       !- Surface Rendering Name
  {ee67bebb-615a-4daf-b47a-4f9e228adb58}, !- Layer 1
  {016bd0bb-df3a-4bfc-9a76-8cd254a84791}, !- Layer 2
  {22f52882-392f-41e1-ada4-102b8bed6520}; !- Layer 3

OS:Construction,
  {f5dc85af-2dc3-407f-a7e2-726e163f6e5e}, !- Handle
  000_Interior Floor,                     !- Name
  ,                                       !- Surface Rendering Name
  {15bdc6a9-a804-4ef6-99ab-40cf4c81cf44}, !- Layer 1
  {4b5b2c9e-4813-4306-a03f-4e1513d617e9}, !- Layer 2
  {00b8a387-e2a2-4083-bf49-4be564392bcc}; !- Layer 3

OS:Construction,
  {3aab5cd4-cb22-480f-a83c-80ca041f5f9d}, !- Handle
  000_Interior Wall,                      !- Name
  ,                                       !- Surface Rendering Name
  {5e540a04-1b54-4801-afa3-7b429b53978f}, !- Layer 1
  {3aea1ff6-d094-4cf2-b92e-8704bbbaa822}, !- Layer 2
  {5e540a04-1b54-4801-afa3-7b429b53978f}; !- Layer 3

OS:Construction,
  {9efe17d8-fc5e-48f2-8312-def69cbfa1d4}, !- Handle
  000_Interior Ceiling,                   !- Name
  ,                                       !- Surface Rendering Name
  {00b8a387-e2a2-4083-bf49-4be564392bcc}, !- Layer 1
  {4b5b2c9e-4813-4306-a03f-4e1513d617e9}, !- Layer 2
  {15bdc6a9-a804-4ef6-99ab-40cf4c81cf44}; !- Layer 3

OS:Construction,
  {d6a493b4-9b05-4b6a-84cb-32f9629f1cae}, !- Handle
  ASHRAE_189.1-2009_ExtWindow_ClimateZone 4-5, !- Name
  ,                                       !- Surface Rendering Name
  {4999eca3-372e-4205-8af5-6a49568a0dcd}; !- Layer 1

OS:Construction,
  {7d1acabc-8a1e-4d46-a833-90463b182201}, !- Handle
  000_Exterior Door,                      !- Name
  ,                                       !- Surface Rendering Name
  {d2e6fdb8-d393-42f5-8029-f711fd9298d7}, !- Layer 1
  {b46e8ad3-5d10-492c-a44c-1146b63d448c}; !- Layer 2

OS:Construction,
  {d4d32806-3fb0-4e89-a566-84d736aa129a}, !- Handle
  000_Exterior Window,                    !- Name
  ,                                       !- Surface Rendering Name
  {8dae13ea-c619-4002-8271-097702b94a4c}, !- Layer 1
  {3cb1663d-c200-44fc-8381-1c41158a1e22}, !- Layer 2
  {8dae13ea-c619-4002-8271-097702b94a4c}; !- Layer 3

OS:Construction,
  {e2e120d6-02b3-45b5-88fe-e9bc39f1ee7e}, !- Handle
  000_Interior Window,                    !- Name
  ,                                       !- Surface Rendering Name
  {8dae13ea-c619-4002-8271-097702b94a4c}; !- Layer 1

OS:Construction,
  {27c502d7-30ed-401d-9989-a40fe3f667a0}, !- Handle
  000_Interior Door,                      !- Name
  ,                                       !- Surface Rendering Name
  {5e79384c-e0e2-4765-b824-fb1de15be59d}; !- Layer 1

OS:Material,
  {5e79384c-e0e2-4765-b824-fb1de15be59d}, !- Handle
  000_G05 25mm wood,                      !- Name
  MediumSmooth,                           !- Roughness
  0.025399999999999999,                   !- Thickness {m}
  0.14999999999999999,                    !- Conductivity {W/m-K}
  608,                                    !- Density {kg/m3}
  1630;                                   !- Specific Heat {J/kg-K}

OS:Material,
  {76dfc4a6-6aa8-4c85-9e85-6f3d9f691afa}, !- Handle
  MAT-CC05 4 HW CONCRETE,                 !- Name
  Rough,                                  !- Roughness
  0.1016,                                 !- Thickness {m}
  1.3109999999999999,                     !- Conductivity {W/m-K}
  2240,                                   !- Density {kg/m3}
  836.8,                                  !- Specific Heat {J/kg-K}
  0.90000000000000002,                    !- Thermal Absorptance
  0.69999999999999996,                    !- Solar Absorptance
  0.69999999999999996;                    !- Visible Absorptance

OS:Material:NoMass,
  {8d19014e-ec01-4544-bc52-f36b3cb80787}, !- Handle
  CP02 CARPET PAD,                        !- Name
  VeryRough,                              !- Roughness
  0.2165,                                 !- Thermal Resistance {m2-K/W}
  0.90000000000000002,                    !- Thermal Absorptance
  0.69999999999999996,                    !- Solar Absorptance
  0.80000000000000004;                    !- Visible Absorptance

OS:Material:NoMass,
  {71cce3a0-741a-46c4-a640-8abe35592802}, !- Handle
  MAT-SHEATH,                             !- Name
  Rough,                                  !- Roughness
  0.36259999999999998,                    !- Thermal Resistance {m2-K/W}
  0.90000000000000002,                    !- Thermal Absorptance
  0.69999999999999996,                    !- Solar Absorptance
  0.69999999999999996;                    !- Visible Absorptance

OS:Material,
  {dab66aaf-2286-4f8f-8140-7ff56a181d05}, !- Handle
  Wall Insulation [39],                   !- Name
  MediumRough,                            !- Roughness
  0.11840000000000001,                    !- Thickness {m}
  0.044999999999999998,                   !- Conductivity {W/m-K}
  265,                                    !- Density {kg/m3}
  836.8,                                  !- Specific Heat {J/kg-K}
  0.90000000000000002,                    !- Thermal Absorptance
  0.69999999999999996,                    !- Solar Absorptance
  0.69999999999999996;                    !- Visible Absorptance

OS:Material,
  {f9c92464-f70c-4235-bc95-3fa7effd89d4}, !- Handle
  1/2IN Gypsum,                           !- Name
  Smooth,                                 !- Roughness
  0.012699999999999999,                   !- Thickness {m}
  0.16,                                   !- Conductivity {W/m-K}
  784.89999999999998,                     !- Density {kg/m3}
  830,                                    !- Specific Heat {J/kg-K}
  0.90000000000000002,                    !- Thermal Absorptance
  0.92000000000000004,                    !- Solar Absorptance
  0.92000000000000004;                    !- Visible Absorptance

OS:Material,
  {ee67bebb-615a-4daf-b47a-4f9e228adb58}, !- Handle
  Roof Membrane,                          !- Name
  VeryRough,                              !- Roughness
  0.0094999999999999998,                  !- Thickness {m}
  0.16,                                   !- Conductivity {W/m-K}
  1121.29,                                !- Density {kg/m3}
  1460,                                   !- Specific Heat {J/kg-K}
  0.90000000000000002,                    !- Thermal Absorptance
  0.69999999999999996,                    !- Solar Absorptance
  0.69999999999999996;                    !- Visible Absorptance

OS:Material,