
OS:Version,
  {c1c24086-bb1c-4ac3-9566-ad3a88074998}, !- Handle
  3.4.0;                                  !- Version Identifier

OS:BuildingStory,
  {87bb9799-8d02-4f63-add4-23dfbf1f486f}, !- Handle
  Story 1,                                !- Name
  0,                                      !- Nominal Z Coordinate {m}
  4,                                      !- Nominal Floor to Floor Height {m}
  ,                                       !- Default Construction Set Name
  ,                                       !- Default Schedule Set Name
  ;                                       !- Group Rendering Name

OS:Space,
  {716d5ddf-c426-4515-919e-d3357a823255}, !- Handle
  Story 1 Core Space,                     !- Name
  ,                                       !- Space Type Name
  ,                                       !- Default Construction Set Name
  ,                                       !- Default Schedule Set Name
  -0,                                     !- Direction of Relative North {deg}
  0,                                      !- X Origin {m}
  0,                                      !- Y Origin {m}
  0,                                      !- Z Origin {m}
  {87bb9799-8d02-4f63-add4-23dfbf1f486f}, !- Building Story Name
  {7c7dcbfd-8e3e-45db-9d97-48e13b12d1f2}; !- Thermal Zone Name

OS:Surface,
  {1925c662-b850-4a95-b702-9d1656c0cbc9}, !- Handle
  Story 1 Core Space Exterior Ground Floor, !- Name
  Floor,                                  !- Surface Type
  ,                                       !- Construction Name
  {716d5ddf-c426-4515-919e-d3357a823255}, !- Space Name
  Ground,                                 !- Outside Boundary Condition
  ,                                       !- Outside Boundary Condition Object
  NoSun,                                  !- Sun Exposure
  NoWind,                                 !- Wind Exposure
  ,                                       !- View Factor to Ground
  ,                                       !- Number of Vertices
  0, 0, 0,                                !- X,Y,Z Vertex 1 {m}
  0, 50, 0,                               !- X,Y,Z Vertex 2 {m}
  100, 50, 0,                             !- X,Y,Z Vertex 3 {m}
  100, 0, 0;                              !- X,Y,Z Vertex 4 {m}

OS:Surface,
  {410bc8e2-0886-47e0-b3e5-7803991d52c2}, !- Handle
  Story 1 Core Space Exterior Wall 3,     !- Name
  Wall,                                   !- Surface Type
  ,                                       !- Construction Name
  {716d5ddf-c426-4515-919e-d3357a823255}, !- Space Name
  Outdoors,                               !- Outside Boundary Condition
  ,                                       !- Outside Boundary Condition Object
  SunExposed,                             !- Sun Exposure
  WindExposed,                            !- Wind Exposure
  ,                                       !- View Factor to Ground
  ,                                       !- Number of Vertices
  0, 50, 4,                               !- X,Y,Z Vertex 1 {m}
  0, 50, 0,                               !- X,Y,Z Vertex 2 {m}
  0, 0, 0,                                !- X,Y,Z Vertex 3 {m}
  0, 0, 4;                                !- X,Y,Z Vertex 4 {m}

OS:Surface,
  {433f6a94-bf70-4980-9853-b27da5329a69}, !- Handle
  Story 1 Core Space Exterior Wall 2,     !- Name
  Wall,                                   !- Surface Type
  ,                                       !- Construction Name
  {716d5ddf-c426-4515-919e-d3357a823255}, !- Space Name
  Outdoors,                               !- Outside Boundary Condition
  ,                                       !- Outside Boundary Condition Object
  SunExposed,                             !- Sun Exposure
  WindExposed,                            !- Wind Exposure
  ,                                       !- View Factor to Ground
  ,                                       !- Number of Vertices
  100, 50, 4,                             !- X,Y,Z Vertex 1 {m}
  100, 50, 0,                             !- X,Y,Z Vertex 2 {m}
  0, 50, 0,                               !- X,Y,Z Vertex 3 {m}
  0, 50, 4;                               !- X,Y,Z Vertex 4 {m}

OS:Surface,
  {bfaf80c2-92d4-4e1c-adf6-51ad4329962c}, !- Handle
  Story 1 Core Space Exterior Wall 1,     !- Name
  Wall,                                   !- Surface Type
  ,                                       !- Construction Name
  {716d5ddf-c426-4515-919e-d3357a823255}, !- Space Name
  Outdoors,                               !- Outside Boundary Condition
  ,                                       !- Outside Boundary Condition Object
  SunExposed,                             !- Sun Exposure
  WindExposed,                            !- Wind Exposure
  ,                                       !- View Factor to Ground
  ,                                       !- Number of Vertices
  100, 0, 4,                              !- X,Y,Z Vertex 1 {m}
  100, 0, 0,                              !- X,Y,Z Vertex 2 {m}
  100, 50, 0,                             !- X,Y,Z Vertex 3 {m}
  100, 50, 4;                             !- X,Y,Z Vertex 4 {m}

OS:Surface,
  {a6c0ea3f-f6a6-4db8-92a6-68ae39525b8c}, !- Handle
  Story 1 Core Space Exterior Wall,       !- Name
  Wall,                                   !- Surface Type
  ,                                       !- Construction Name
  {716d5ddf-c426-4515-919e-d3357a823255}, !- Space Name
  Outdoors,                               !- Outside Boundary Condition
  ,                                       !- Outside Boundary Condition Object
  SunExposed,                             !- Sun Exposure
  WindExposed,                            !- Wind Exposure
  ,                                       !- View Factor to Ground
  ,                                       !- Number of Vertices
  0, 0, 4,                                !- X,Y,Z Vertex 1 {m}
  0, 0, 0,                                !- X,Y,Z Vertex 2 {m}
  100, 0, 0,                              !- X,Y,Z Vertex 3 {m}
  100, 0, 4;                              !- X,Y,Z Vertex 4 {m}

OS:Surface,
  {333b28bd-eb8a-40c9-a1ec-72568ac5e0ae}, !- Handle
  Story 1 Core Space Exterior Roof,       !- Name
  RoofCeiling,                            !- Surface Type
  ,                                       !- Construction Name
  {716d5ddf-c426-4515-919e-d3357a823255}, !- Space Name
  Outdoors,                               !- Outside Boundary Condition
  ,                                       !- Outside Boundary Condition Object
  SunExposed,                             !- Sun Exposure
  WindExposed,                            !- Wind Exposure
  ,                                       !- View Factor to Ground
  ,                                       !- Number of Vertices
  100, 0, 4,                              !- X,Y,Z Vertex 1 {m}
  100, 50, 4,                             !- X,Y,Z Vertex 2 {m}
  0, 50, 4,                               !- X,Y,Z Vertex 3 {m}
  0, 0, 4;                                !- X,Y,Z Vertex 4 {m}

OS:ThermalZone,
  {7c7dcbfd-8e3e-45db-9d97-48e13b12d1f2}, !- Handle
  Story 1 Core Thermal Zone,              !- Name
  ,                                       !- Multiplier
  ,                                       !- Ceiling Height {m}
  ,                                       !- Volume {m3}
  ,                                       !- Floor Area {m2}
  ,                                       !- Zone Inside Convection Algorithm
  ,                                       !- Zone Outside Convection Algorithm
  ,                                       !- Zone Conditioning Equipment List Name
  {93c4cebe-bde7-4835-8aa3-a8af0fa7176f}, !- Zone Air Inlet Port List
  {b60c0eac-7cf5-470f-bc72-1fcb0a34f1f8}, !- Zone Air Exhaust Port List
  {1420c987-d3a7-42ca-9785-16d3b55a923f}, !- Zone Air Node Name
  {943811f4-3f67-4062-af0c-a28b87248db9}, !- Zone Return Air Port List
  ,                                       !- Primary Daylighting Control Name
  ,                                       !- Fraction of Zone Controlled by Primary Daylighting Control
  ,                                       !- Secondary Daylighting Control Name
  ,                                       !- Fraction of Zone Controlled by Secondary Daylighting Control
  ,                                       !- Illuminance Map Name
  ,                                       !- Group Rendering Name
  {23d1eb73-cfb5-46fe-a361-8578a1132697}, !- Thermostat Name
  No;                                     !- Use Ideal Air Loads

OS:Node,
  {40a79be2-addb-4a20-aefe-9d0f4f2e8f0e}, !- Handle
  Node 1,                                 !- Name
  {1420c987-d3a7-42ca-9785-16d3b55a923f}, !- Inlet Port
  ;                                       !- Outlet Port

OS:Connection,
  {1420c987-d3a7-42ca-9785-16d3b55a923f}, !- Handle
  {7c7dcbfd-8e3e-45db-9d97-48e13b12d1f2}, !- Source Object
  11,                                     !- Outlet Port
  {40a79be2-addb-4a20-aefe-9d0f4f2e8f0e}, !- Target Object
  2;                                      !- Inlet Port

OS:PortList,
  {93c4cebe-bde7-4835-8aa3-a8af0fa7176f}, !- Handle
  {7c7dcbfd-8e3e-45db-9d97-48e13b12d1f2}, !- HVAC Component
  {4cceec5b-3208-46f0-a044-ce62011af814}; !- Port 1

OS:PortList,
  {b60c0eac-7cf5-470f-bc72-1fcb0a34f1f8}, !- Handle
  {7c7dcbfd-8e3e-45db-9d97-48e13b12d1f2}; !- HVAC Component

OS:PortList,
  {943811f4-3f67-4062-af0c-a28b87248db9}, !- Handle
  {7c7dcbfd-8e3e-45db-9d97-48e13b12d1f2}, !- HVAC Component
  {99b097b2-3b96-4f71-8130-1ab473bdf7fc}; !- Port 1

OS:Sizing:Zone,
  {92a81ec8-34a7-4835-94b0-aa9c1ec43540}, !- Handle
  {7c7dcbfd-8e3e-45db-9d97-48e13b12d1f2}, !- Zone or ZoneList Name
  SupplyAirTemperature,                   !- Zone Cooling Design Supply Air Temperature Input Method
  14,                                     !- Zone Cooling Design Supply Air Temperature {C}
  11.11,                                  !- Zone Cooling Design Supply Air Temperature Difference {deltaC}
  SupplyAirTemperature,                   !- Zone Heating Design Supply Air Temperature Input Method
  40,                                     !- Zone Heating Design Supply Air Temperature {C}
  11.11,                                  !- Zone Heating Design Supply Air Temperature Difference {deltaC}
  0.0085,                                 !- Zone Cooling Design Supply Air Humidity Ratio {kg-H2O/kg-air}
  0.008,                                  !- Zone Heating Design Supply Air Humidity Ratio {kg-H2O/kg-air}
  ,                                       !- Zone Heating Sizing Factor
  ,                                       !- Zone Cooling Sizing Factor
  DesignDay,                              !- Cooling Design Air Flow Method
  ,                                       !- Cooling Design Air Flow Rate {m3/s}
  ,                                       !- Cooling Minimum Air Flow per Zone Floor Area {m3/s-m2}
  ,                                       !- Cooling Minimum Air Flow {m3/s}
  ,                                       !- Cooling Minimum Air Flow Fraction
  DesignDay,                              !- Heating Design Air Flow Method
  ,                                       !- Heating Design Air Flow Rate {m3/s}
  ,                                       !- Heating Maximum Air Flow per Zone Floor Area {m3/s-m2}
  ,                                       !- Heating Maximum Air Flow {m3/s}
  ,                                       !- Heating Maximum Air Flow Fraction
  No,                                     !- Account for Dedicated Outdoor Air System
  NeutralSupplyAir,                       !- Dedicated Outdoor Air System Control Strategy
  autosize,                               !- Dedicated Outdoor Air Low Setpoint Temperature for Design {C}
  autosize;                               !- Dedicated Outdoor Air High Setpoint Temperature for Design {C}

OS:ZoneHVAC:EquipmentList,
  {6763e844-d0bc-4235-8d05-77735acce288}, !- Handle
  Zone HVAC Equipment List 1,             !- Name
  {7c7dcbfd-8e3e-45db-9d97-48e13b12d1f2}, !- Thermal Zone
  ,                                       !- Load Distribution Scheme
  {d278d3d1-36e9-45f2-874f-4061425f01d6}, !- Zone Equipment 1
  1,                                      !- Zone Equipment Cooling Sequence 1
  1,                                      !- Zone Equipment Heating or No-Load Sequence 1
  ,                                       !- Zone Equipment Sequential Cooling Fraction Schedule Name 1
  ;                                       !- Zone Equipment Sequential Heating Fraction Schedule Name 1

OS:SubSurface,
  {3424c05e-f8d1-4520-bac6-4aaa916eb099}, !- Handle
  Story 1 Core Space Exterior Wall Window, !- Name
  FixedWindow,                            !- Sub Surface Type
  ,                                       !- Construction Name
  {a6c0ea3f-f6a6-4db8-92a6-68ae39525b8c}, !- Surface Name
  ,                                       !- Outside Boundary Condition Object
  ,                                       !- View Factor to Ground
  ,                                       !- Frame and Divider Name
  ,                                       !- Multiplier
  ,                                       !- Number of Vertices
  0.0254, 0, 2.60081321311226,            !- X,Y,Z Vertex 1 {m}
  0.0254, 0, 1,                           !- X,Y,Z Vertex 2 {m}
  99.9746, 0, 1,                          !- X,Y,Z Vertex 3 {m}
  99.9746, 0, 2.60081321311226;           !- X,Y,Z Vertex 4 {m}

OS:SubSurface,
  {55f58a96-1c26-4d59-bcf5-f752e2080d20}, !- Handle
  Story 1 Core Space Exterior Wall 1 Window, !- Name
  FixedWindow,                            !- Sub Surface Type
  ,                                       !- Construction Name
  {bfaf80c2-92d4-4e1c-adf6-51ad4329962c}, !- Surface Name
  ,                                       !- Outside Boundary Condition Object
  ,                                       !- View Factor to Ground
  ,                                       !- Frame and Divider Name
  ,                                       !- Multiplier
  ,                                       !- Number of Vertices
  100, 0.0254, 2.60162725328934,          !- X,Y,Z Vertex 1 {m}
  100, 0.0254, 1,                         !- X,Y,Z Vertex 2 {m}
  100, 49.9746, 1,                        !- X,Y,Z Vertex 3 {m}
  100, 49.9746, 2.60162725328934;         !- X,Y,Z Vertex 4 {m}

OS:SubSurface,
  {6b35d52a-1af6-41fc-80a5-cbe7e8094b8f}, !- Handle
  Story 1 Core Space Exterior Wall 2 Window, !- Name
  FixedWindow,                            !- Sub Surface Type
  ,                                       !- Construction Name
  {433f6a94-bf70-4980-9853-b27da5329a69}, !- Surface Name
  ,                                       !- Outside Boundary Condition Object
  ,                                       !- View Factor to Ground
  ,                                       !- Frame and Divider Name
  ,                                       !- Multiplier
  ,                                       !- Number of Vertices
  99.9746, 50, 2.60081321311226,          !- X,Y,Z Vertex 1 {m}
  99.9746, 50, 1,                         !- X,Y,Z Vertex 2 {m}
  0.0253999999999905, 50, 1,              !- X,Y,Z Vertex 3 {m}
  0.0253999999999905, 50, 2.60081321311226; !- X,Y,Z Vertex 4 {m}

OS:SubSurface,
  {adb3deb4-3e67-4909-90e3-83ee3dfa71d3}, !- Handle
  Story 1 Core Space Exterior Wall 3 Window, !- Name
  FixedWindow,                            !- Sub Surface Type
  ,                                       !- Construction Name
  {410bc8e2-0886-47e0-b3e5-7803991d52c2}, !- Surface Name
  ,                                       !- Outside Boundary Condition Object
  ,                                       !- View Factor to Ground
  ,                                       !- Frame and Divider Name
  ,                                       !- Multiplier
  ,                                       !- Number of Vertices
  0, 49.9746, 2.60162725328934,           !- X,Y,Z Vertex 1 {m}
  0, 49.9746, 1,                          !- X,Y,Z Vertex 2 {m}
  0, 0.0254000000000048, 1,               !- X,Y,Z Vertex 3 {m}
  0, 0.0254000000000048, 2.60162725328934; !- X,Y,Z Vertex 4 {m}

OS:Schedule:Ruleset,
  {5df4a2e3-02bd-4392-94b1-d1ddcf0da713}, !- Handle
  Cooling Sch,                            !- Name
  {74f0b0f8-8e90-4f11-bdb4-22e4c0df080d}, !- Schedule Type Limits Name
  {9e188c9b-8e75-4c8c-8240-42a255602986}; !- Default Day Schedule Name

OS:Schedule:Day,
  {9e188c9b-8e75-4c8c-8240-42a255602986}, !- Handle
  Cooling Sch Default,                    !- Name
  {74f0b0f8-8e90-4f11-bdb4-22e4c0df080d}, !- Schedule Type Limits Name
  ,                                       !- Interpolate to Timestep
  24,                                     !- Hour 1
  0,                                      !- Minute 1
  28;                                     !- Value Until Time 1

OS:Schedule:Ruleset,
  {b61265e7-8b7f-4fe9-833b-0be8b1b0b91e}, !- Handle
  Heating Sch,                            !- Name
  {74f0b0f8-8e90-4f11-bdb4-22e4c0df080d}, !- Schedule Type Limits Name
  {b9ac8a60-9916-4339-bde7-b41752265230}; !- Default Day Schedule Name

OS:Schedule:Day,
  {b9ac8a60-9916-4339-bde7-b41752265230}, !- Handle
  Heating Sch Default,                    !- Name
  {74f0b0f8-8e90-4f11-bdb4-22e4c0df080d}, !- Schedule Type Limits Name
  ,                                       !- Interpolate to Timestep
  24,                                     !- Hour 1
  0,                                      !- Minute 1
  24;                                     !- Value Until Time 1

OS:ThermostatSetpoint:DualSetpoint,
  {23d1eb73-cfb5-46fe-a361-8578a1132697}, !- Handle
  Thermostat Setpoint Dual Setpoint 1,    !- Name
  {b61265e7-8b7f-4fe9-833b-0be8b1b0b91e}, !- Heating Setpoint Temperature Schedule Name
  {5df4a2e3-02bd-4392-94b1-d1ddcf0da713}; !- Cooling Setpoint Temperature Schedule Name

OS:ScheduleTypeLimits,
  {74f0b0f8-8e90-4f11-bdb4-22e4c0df080d}, !- Handle
  Temperature,                            !- Name
  ,                                       !- Lower Limit Value
  ,                                       !- Upper Limit Value
  Continuous,                             !- Numeric Type
  Temperature;                            !- Unit Type

OS:DefaultConstructionSet,
  {80c50b61-0c2b-4052-bd69-fe42b3a99b0e}, !- Handle
  ASHRAE_189.1-2009_ClimateZone 4-5 (mdoff)_ConstSet, !- Name
  {ca5f1edd-fb6d-4fc8-b2a3-c9f9dc8aacb2}, !- Default Exterior Surface Constructions Name
  {e70eb7b4-d99c-412f-b653-139783f3490c}, !- Default Interior Surface Constructions Name
  {89ced890-1117-42bd-b342-66162d1cd6a5}, !- Default Ground Contact Surface Constructions Name
  {a9c24fbd-3d26-4700-8eff-6ee3cbf10342}, !- Default Exterior SubSurface Constructions Name
  {05e4282e-d0e6-44a9-a43a-3325afd224c7}, !- Default Interior SubSurface Constructions Name
  {722ae8d1-e746-4e49-80e5-c8d6c50f6a2b}, !- Interior Partition Construction Name
  ,                                       !- Space Shading Construction Name
  ,                                       !- Building Shading Construction Name
  ,                                       !- Site Shading Construction Name
  ;                                       !- Adiabatic Surface Construction Name

OS:DefaultSurfaceConstructions,
  {ca5f1edd-fb6d-4fc8-b2a3-c9f9dc8aacb2}, !- Handle
  ASHRAE_189.1-2009_ClimateZone 4-5 (mdoff)_Exterior_DefSurfCons, !- Name
  {9d876c2a-e510-4603-b859-e81c0f7842d8}, !- Floor Construction Name
  {265cefef-42c2-4aae-a739-1ddd9b061642}, !- Wall Construction Name
  {be8b7075-9708-4093-b562-e4231781f510}; !- Roof Ceiling Construction Name

OS:DefaultSurfaceConstructions,
  {e70eb7b4-d99c-412f-b653-139783f3490c}, !- Handle
  000_Interior_DefSurfCons,               !- Name
  {55c5f058-3163-4afc-add8-02874875153e}, !- Floor Construction Name
  {40415f76-3e1b-4f7b-b899-a8468758099d}, !- Wall Construction Name
  {36784c51-964f-4b79-b052-923d16af29c7}; !- Roof Ceiling Construction Name

OS:DefaultSurfaceConstructions,
  {89ced890-1117-42bd-b342-66162d1cd6a5}, !- Handle
  000_Ground_DefSurfCons,                 !- Name
  {9d876c2a-e510-4603-b859-e81c0f7842d8}, !- Floor Construction Name
  {9d876c2a-e510-4603-b859-e81c0f7842d8}, !- Wall Construction Name
  {9d876c2a-e510-4603-b859-e81c0f7842d8}; !- Roof Ceiling Construction Name

OS:DefaultSubSurfaceConstructions,
  {a9c24fbd-3d26-4700-8eff-6ee3cbf10342}, !- Handle
  ASHRAE_189.1-2009_ClimateZone 4-5 (mdoff)_Exterior_DefSubCons, !- Name
  {358e0321-008b-48d4-a88f-5ff1ea84292e}, !- Fixed Window Construction Name
  {358e0321-008b-48d4-a88f-5ff1ea84292e}, !- Operable Window Construction Name
  {fe2da201-5ee4-476c-97a7-3dcd0d7cd7f1}, !- Door Construction Name
  {7bfc522d-5974-4dfc-a165-81f46eaa6bef}, !- Glass Door Construction Name
  ,                                       !- Overhead Door Construction Name
  {7bfc522d-5974-4dfc-a165-81f46eaa6bef}, !- Skylight Construction Name
  {f88789d2-d24d-4f1d-a2d4-473378484323}, !- Tubular Daylight Dome Construction Name
  {f88789d2-d24d-4f1d-a2d4-473378484323}; !- Tubular Daylight Diffuser Construction Name

OS:DefaultSubSurfaceConstructions,
  {05e4282e-d0e6-44a9-a43a-3325afd224c7}, !- Handle
  000_Interior_DefSubCons,                !- Name
  {f88789d2-d24d-4f1d-a2d4-473378484323}, !- Fixed Window Construction Name
  {f88789d2-d24d-4f1d-a2d4-473378484323}, !- Operable Window Construction Name
  {a5ba60c0-02d5-4378-9745-5067a4d9d78e}, !- Door Construction Name
  {7bfc522d-5974-4dfc-a165-81f46eaa6bef}, !- Glass Door Construction Name
  ,                                       !- Overhead Door Construction Name
  {7bfc522d-5974-4dfc-a165-81f46eaa6bef}, !- Skylight Construction Name
  {f88789d2-d24d-4f1d-a2d4-473378484323}, !- Tubular Daylight Dome Construction Name
  {f88789d2-d24d-4f1d-a2d4-473378484323}; !- Tubular Daylight Diffuser Construction Name

OS:Construction,
  {722ae8d1-e746-4e49-80e5-c8d6c50f6a2b}, !- Handle
  000_Interior Partition,                 !- Name
  ,                                       !- Surface Rendering Name
  {58659b56-8b7f-487e-b878-adbe0ade672f}; !- Layer 1

OS:Construction,
  {9d876c2a-e510-4603-b859-e81c0f7842d8}, !- Handle
  000_ExtSlabCarpet_4in_ClimateZone 1-8,  !- Name
  ,                                       !- Surface Rendering Name
  {28921d99-74e1-4f28-b409-7e07c92c8d12}, !- Layer 1
  {e101e98b-1e71-47d4-b0b7-8a6b5987ebd0}; !- Layer 2

OS:Construction,
  {265cefef-42c2-4aae-a739-1ddd9b061642}, !- Handle
  ASHRAE_189.1-2009_ExtWall_SteelFrame_ClimateZone 4-8, !- Name
  ,                                       !- Surface Rendering Name
  {bb4d0732-8fe1-4d2f-8d2c-5a6c2e2318f7}, !- Layer 1
  {26fdc680-5338-4047-a971-e0ee16978ea8}, !- Layer 2
  {198ca4a4-901f-4c31-8dd1-b2fc5ade6e21}; !- Layer 3

OS:Construction,
  {be8b7075-9708-4093-b562-e4231781f510}, !- Handle
  ASHRAE_189.1-2009_ExtRoof_IEAD_ClimateZone 2-5, !- Name
  ,                                       !- Surface Rendering Name
  {56475682-93c2-4f7e-8c21-f4bd21cf8beb}, !- Layer 1
  {eb836976-e188-4911-9d87-efd68ecee0b0}, !- Layer 2
  {4ed89565-285c-4394-903a-e5f037f1af26}; !- Layer 3

OS:Construction,
  {55c5f058-3163-4afc-add8-02874875153e}, !- Handle
  000_Interior Floor,                     !- Name
  ,                                       !- Surface Rendering Name
  {2f209ae3-57bb-4f2d-9846-6e5001eff63f}, !- Layer 1
  {3f296aa2-3dc0-47be-ac32-f73034edeaba}, !- Layer 2
  {d4271f4d-c58b-4ec1-8c37-732998530a1b}; !- Layer 3

OS:Construction,
  {40415f76-3e1b-4f7b-b899-a8468758099d}, !- Handle
  000_Interior Wall,                      !- Name
  ,                                       !- Surface Rendering Name
  {fbef2bac-6454-4d04-8da0-2b85d4f65059}, !- Layer 1
  {e8574d2a-bc6a-4195-afc8-f99ad97f49b0}, !- Layer 2
  {fbef2bac-6454-4d04-8da0-2b85d4f65059}; !- Layer 3

OS:Construction,
  {36784c51-964f-4b79-b052-923d16af29c7}, !- Handle
  000_Interior Ceiling,                   !- Name
  ,                                       !- Surface Rendering Name
  {d4271f4d-c58b-4ec1-8c37-732998530a1b}, !- Layer 1
  {3f296aa2-3dc0-47be-ac32-f73034edeaba}, !- Layer 2
  {2f209ae3-57bb-4f2d-9846-6e5001eff63f}; !- Layer 3

OS:Construction,
  {358e0321-008b-48d4-a88f-5ff1ea84292e}, !- Handle
  ASHRAE_189.1-2009_ExtWindow_ClimateZone 4-5, !- Name
  ,                                       !- Surface Rendering Name
  {078b1a08-5883-4dcf-841f-5d6625ede4bf}; !- Layer 1

OS:Construction,
  {fe2da201-5ee4-476c-97a7-3dcd0d7cd7f1}, !- Handle
  000_Exterior Door,                      !- Name
  ,                                       !- Surface Rendering Name
  {fcc1040b-df51-4b7e-815d-ec4ef503c7be}, !- Layer 1
  {67ca2896-c486-4973-ae8f-c84824786230}; !- Layer 2

OS:Construction,
  {7bfc522d-5974-4dfc-a165-81f46eaa6bef}, !- Handle
  000_Exterior Window,                    !- Name
  ,                                       !- Surface Rendering Name
  {70489fc2-c6fc-4ca5-b1f8-22c553be6d75}, !- Layer 1
  {7ca5ad5d-2a37-4e63-887a-4eee27d43bac}, !- Layer 2
  {70489fc2-c6fc-4ca5-b1f8-22c553be6d75}; !- Layer 3

OS:Construction,
  {f88789d2-d24d-4f1d-a2d4-473378484323}, !- Handle
  000_Interior Window,                    !- Name
  ,                                       !- Surface Rendering Name
  {70489fc2-c6fc-4ca5-b1f8-22c553be6d75}; !- Layer 1

OS:Construction,
  {a5ba60c0-02d5-4378-9745-5067a4d9d78e}, !- Handle
  000_Interior Door,                      !- Name
  ,                                       !- Surface Rendering Name
  {58659b56-8b7f-487e-b878-adbe0ade672f}; !- Layer 1

OS:Material,
  {58659b56-8b7f-487e-b878-adbe0ade672f}, !- Handle
  000_G05 25mm wood,                      !- Name
  MediumSmooth,                           !- Roughness
  0.025399999999999999,                   !- Thickness {m}
  0.14999999999999999,                    !- Conductivity {W/m-K}
  608,                                    !- Density {kg/m3}
  1630;                                   !- Specific Heat {J/kg-K}

OS:Material,
  {28921d99-74e1-4f28-b409-7e07c92c8d12}, !- Handle
  MAT-CC05 4 HW CONCRETE,                 !- Name
  Rough,                                  !- Roughness
  0.1016,                                 !- Thickness {m}
  1.3109999999999999,                     !- Conductivity {W/m-K}
  2240,                                   !- Density {kg/m3}
  836.8,                                  !- Specific Heat {J/kg-K}
  0.90000000000000002,                    !- Thermal Absorptance
  0.69999999999999996,                    !- Solar Absorptance
  0.69999999999999996;                    !- Visible Absorptance

OS:Material:NoMass,
  {e101e98b-1e71-47d4-b0b7-8a6b5987ebd0}, !- Handle
  CP02 CARPET PAD,                        !- Name
  VeryRough,                              !- Roughness
  0.2165,                                 !- Thermal Resistance {m2-K/W}
  0.90000000000000002,                    !- Thermal Absorptance
  0.69999999999999996,                    !- Solar Absorptance
  0.80000000000000004;                    !- Visible Absorptance

OS:Material:NoMass,
  {bb4d0732-8fe1-4d2f-8d2c-5a6c2e2318f7}, !- Handle
  MAT-SHEATH,                             !- Name
  Rough,                                  !- Roughness
  0.36259999999999998,                    !- Thermal Resistance {m2-K/W}
  0.90000000000000002,                    !- Thermal Absorptance
  0.69999999999999996,                    !- Solar Absorptance
  0.69999999999999996;                    !- Visible Absorptance

OS:Material,
  {26fdc680-5338-4047-a971-e0ee16978ea8}, !- Handle
  Wall Insulation [39],                   !- Name
  MediumRough,                            !- Roughness
  0.11840000000000001,                    !- Thickness {m}
  0.044999999999999998,                   !- Conductivity {W/m-K}
  265,                                    !- Density {kg/m3}
  836.8,                                  !- Specific Heat {J/kg-K}
  0.90000000000000002,                    !- Thermal Absorptance
  0.69999999999999996,                    !- Solar Absorptance
  0.69999999999999996;                    !- Visible Absorptance

OS:Material,
  {198ca4a4-901f-4c31-8dd1-b2fc5ade6e21}, !- Handle
  1/2IN Gypsum,                           !- Name
  Smooth,                                 !- Roughness
  0.012699999999999999,                   !- Thickness {m}
  0.16,                                   !- Conductivity {W/m-K}
  784.89999999999998,                     !- Density {kg/m3}
  830,                                    !- Specific Heat {J/kg-K}
  0.90000000000000002,                    !- Thermal Absorptance
  0.92000000000000004,                    !- Solar Absorptance
  0.92000000000000004;                    !- Visible Absorptance

OS:Material,
  {56475682-93c2-4f7e-8c21-f4bd21cf8beb}, !- Handle
  Roof Membrane,                          !- Name
  VeryRough,                              !- Roughness
  0.0094999999999999998,                  !- Thickness {m}
  0.16,                                   !- Conductivity {W/m-K}
  1121.29,                                !- Density {kg/m3}
  1460,                                   !- Specific Heat {J/kg-K}
  0.90000000000000002,                    !- Thermal Absorptance
  0.69999999999999996,                    !- Solar Absorptance
  0.69999999999999996;                    !- Visible Absorptance

OS:Material,
  {eb836976-e188-4911-9d87-efd68ecee0b0}, !- Handle
  Roof Insulation [21],                   !- Name
  MediumRough,                            !- Roughness
  0.21049999999999999,                    !- Thickness {m}
  0.049000000000000002,                   !- Conductivity {W/m-K}
  265,                                    !- Density {kg/m3}
  836.8,                                  !- Specific Heat {J/kg-K}
  0.90000000000000002,                    !- Thermal Absorptance
  0.69999999999999996,                    !- Solar Absorptance
  0.69999999999999996;                    !- Visible Absorptance

OS:Material,
  {4ed89565-285c-4394-903a-e5f037f1af26}, !- Handle
  Metal Decking,                          !- Name
  MediumSmooth,                           !- Roughness