
OS:Version,
  {b9a5243d-cc17-47d5-99c0-3525951a2fcf}, !- Handle
  3.3.0;                                  !- Version Identifier

OS:BuildingStory,
  {7a985e42-f742-46a6-98b8-2775eb339371}, !- Handle
  Story 1,                                !- Name
  0,                                      !- Nominal Z Coordinate {m}
  4,                                      !- Nominal Floor to Floor Height {m}
  ,                                       !- Default Construction Set Name
  ,                                       !- Default Schedule Set Name
  ;                                       !- Group Rendering Name

OS:Space,
  {76f5e5df-6835-4f19-8bfb-8ea8c8cad838}, !- Handle
  Story 1 Core Space,                     !- Name
  ,                                       !- Space Type Name
  ,                                       !- Default Construction Set Name
  ,                                       !- Default Schedule Set Name
  -0,                                     !- Direction of Relative North {deg}
  0,                                      !- X Origin {m}
  0,                                      !- Y Origin {m}
  0,                                      !- Z Origin {m}
  {7a985e42-f742-46a6-98b8-2775eb339371}, !- Building Story Name
  {3e6a28cd-18ab-4978-9cc8-da5ec1e5a646}; !- Thermal Zone Name

OS:Surface,
  {4ede12aa-7c78-44b2-8267-cb8dcd277d0b}, !- Handle
  Story 1 Core Space Exterior Ground Floor, !- Name
  Floor,                                  !- Surface Type
  ,                                       !- Construction Name
  {76f5e5df-6835-4f19-8bfb-8ea8c8cad838}, !- Space Name
  Ground,                                 !- Outside Boundary Condition
  ,                                       !- Outside Boundary Condition Object
  NoSun,                                  !- Sun Exposure
  NoWind,                                 !- Wind Exposure
  ,                                       !- View Factor to Ground
  ,                                       !- Number of Vertices
  0, 0, 0,                                !- X,Y,Z Vertex 1 {m}
  0, 50, 0,                               !- X,Y,Z Vertex 2 {m}
  100, 50, 0,                             !- X,Y,Z Vertex 3 {m}
  100, 0, 0;                              !- X,Y,Z Vertex 4 {m}

OS:Surface,
  {b33676cd-41b0-4630-963a-55a11cb863e7}, !- Handle
  Story 1 Core Space Exterior Wall 3,     !- Name
  Wall,                                   !- Surface Type
  ,                                       !- Construction Name
  {76f5e5df-6835-4f19-8bfb-8ea8c8cad838}, !- Space Name
  Outdoors,                               !- Outside Boundary Condition
  ,                                       !- Outside Boundary Condition Object
  SunExposed,                             !- Sun Exposure
  WindExposed,                            !- Wind Exposure
  ,                                       !- View Factor to Ground
  ,                                       !- Number of Vertices
  0, 50, 4,                               !- X,Y,Z Vertex 1 {m}
  0, 50, 0,                               !- X,Y,Z Vertex 2 {m}
  0, 0, 0,                                !- X,Y,Z Vertex 3 {m}
  0, 0, 4;                                !- X,Y,Z Vertex 4 {m}

OS:Surface,
  {ea79637f-4e93-43a3-a362-8c9bd13e14db}, !- Handle
  Story 1 Core Space Exterior Wall 2,     !- Name
  Wall,                                   !- Surface Type
  ,                                       !- Construction Name
  {76f5e5df-6835-4f19-8bfb-8ea8c8cad838}, !- Space Name
  Outdoors,                               !- Outside Boundary Condition
  ,                                       !- Outside Boundary Condition Object
  SunExposed,                             !- Sun Exposure
  WindExposed,                            !- Wind Exposure
  ,                                       !- View Factor to Ground
  ,                                       !- Number of Vertices
  100, 50, 4,                             !- X,Y,Z Vertex 1 {m}
  100, 50, 0,                             !- X,Y,Z Vertex 2 {m}
  0, 50, 0,                               !- X,Y,Z Vertex 3 {m}
  0, 50, 4;                               !- X,Y,Z Vertex 4 {m}

OS:Surface,
  {e7e0894c-4834-48e8-abd1-b7362af57168}, !- Handle
  Story 1 Core Space Exterior Wall 1,     !- Name
  Wall,                                   !- Surface Type
  ,                                       !- Construction Name
  {76f5e5df-6835-4f19-8bfb-8ea8c8cad838}, !- Space Name
  Outdoors,                               !- Outside Boundary Condition
  ,                                       !- Outside Boundary Condition Object
  SunExposed,                             !- Sun Exposure
  WindExposed,                            !- Wind Exposure
  ,                                       !- View Factor to Ground
  ,                                       !- Number of Vertices
  100, 0, 4,                              !- X,Y,Z Vertex 1 {m}
  100, 0, 0,                              !- X,Y,Z Vertex 2 {m}
  100, 50, 0,                             !- X,Y,Z Vertex 3 {m}
  100, 50, 4;                             !- X,Y,Z Vertex 4 {m}

OS:Surface,
  {b30bc379-2a0d-4daa-b5dd-488e7cbd4470}, !- Handle
  Story 1 Core Space Exterior Wall,       !- Name
  Wall,                                   !- Surface Type
  ,                                       !- Construction Name
  {76f5e5df-6835-4f19-8bfb-8ea8c8cad838}, !- Space Name
  Outdoors,                               !- Outside Boundary Condition
  ,                                       !- Outside Boundary Condition Object
  SunExposed,                             !- Sun Exposure
  WindExposed,                            !- Wind Exposure
  ,                                       !- View Factor to Ground
  ,                                       !- Number of Vertices
  0, 0, 4,                                !- X,Y,Z Vertex 1 {m}
  0, 0, 0,                                !- X,Y,Z Vertex 2 {m}
  100, 0, 0,                              !- X,Y,Z Vertex 3 {m}
  100, 0, 4;                              !- X,Y,Z Vertex 4 {m}

OS:Surface,
  {3cf9cb2b-74d9-49b6-a575-08be04da805e}, !- Handle
  Story 1 Core Space to Story 2 Core Space Interior RoofCeiling, !- Name
  RoofCeiling,                            !- Surface Type
  ,                                       !- Construction Name
  {76f5e5df-6835-4f19-8bfb-8ea8c8cad838}, !- Space Name
  Surface,                                !- Outside Boundary Condition
  {ad65b3d1-d102-4072-afd1-ffa604c0c9ce}, !- Outside Boundary Condition Object
  NoSun,                                  !- Sun Exposure
  NoWind,                                 !- Wind Exposure
  ,                                       !- View Factor to Ground
  ,                                       !- Number of Vertices
  100, 0, 4,                              !- X,Y,Z Vertex 1 {m}
  100, 50, 4,                             !- X,Y,Z Vertex 2 {m}
  0, 50, 4,                               !- X,Y,Z Vertex 3 {m}
  0, 0, 4;                                !- X,Y,Z Vertex 4 {m}

OS:BuildingStory,
  {7278c3c7-8c9a-446e-b7ba-a112c93c23fb}, !- Handle
  Story 2,                                !- Name
  4,                                      !- Nominal Z Coordinate {m}
  4,                                      !- Nominal Floor to Floor Height {m}
  ,                                       !- Default Construction Set Name
  ,                                       !- Default Schedule Set Name
  ;                                       !- Group Rendering Name

OS:Space,
  {54704ed5-65aa-4316-bc5a-6d9414fc084b}, !- Handle
  Story 2 Core Space,                     !- Name
  ,                                       !- Space Type Name
  ,                                       !- Default Construction Set Name
  ,                                       !- Default Schedule Set Name
  -0,                                     !- Direction of Relative North {deg}
  0,                                      !- X Origin {m}
  0,                                      !- Y Origin {m}
  4,                                      !- Z Origin {m}
  {7278c3c7-8c9a-446e-b7ba-a112c93c23fb}, !- Building Story Name
  {92c308d1-2b82-4581-8bf4-cb862f798987}; !- Thermal Zone Name

OS:Surface,
  {ad65b3d1-d102-4072-afd1-ffa604c0c9ce}, !- Handle
  Story 2 Core Space to Story 1 Core Space Interior RoofCeiling, !- Name
  Floor,                                  !- Surface Type
  ,                                       !- Construction Name
  {54704ed5-65aa-4316-bc5a-6d9414fc084b}, !- Space Name
  Surface,                                !- Outside Boundary Condition
  {3cf9cb2b-74d9-49b6-a575-08be04da805e}, !- Outside Boundary Condition Object
  NoSun,                                  !- Sun Exposure
  NoWind,                                 !- Wind Exposure
  ,                                       !- View Factor to Ground
  ,                                       !- Number of Vertices
  0, 0, 0,                                !- X,Y,Z Vertex 1 {m}
  0, 50, 0,                               !- X,Y,Z Vertex 2 {m}
  100, 50, 0,                             !- X,Y,Z Vertex 3 {m}
  100, 0, 0;                              !- X,Y,Z Vertex 4 {m}

OS:Surface,
  {4c79ca6c-d755-41bc-bf15-eaae99c57fa6}, !- Handle
  Story 2 Core Space Exterior Wall,       !- Name
  Wall,                                   !- Surface Type
  ,                                       !- Construction Name
  {54704ed5-65aa-4316-bc5a-6d9414fc084b}, !- Space Name
  Outdoors,                               !- Outside Boundary Condition
  ,                                       !- Outside Boundary Condition Object
  SunExposed,                             !- Sun Exposure
  WindExposed,                            !- Wind Exposure
  ,                                       !- View Factor to Ground
  ,                                       !- Number of Vertices
  0, 50, 4,                               !- X,Y,Z Vertex 1 {m}
  0, 50, 0,                               !- X,Y,Z Vertex 2 {m}
  0, 0, 0,                                !- X,Y,Z Vertex 3 {m}
  0, 0, 4;                                !- X,Y,Z Vertex 4 {m}

OS:Surface,
  {998cbd36-2daf-4f9a-b54a-336fd0f0a625}, !- Handle
  Story 2 Core Space Exterior Wall 1,     !- Name
  Wall,                                   !- Surface Type
  ,                                       !- Construction Name
  {54704ed5-65aa-4316-bc5a-6d9414fc084b}, !- Space Name
  Outdoors,                               !- Outside Boundary Condition
  ,                                       !- Outside Boundary Condition Object
  SunExposed,                             !- Sun Exposure
  WindExposed,                            !- Wind Exposure
  ,                                       !- View Factor to Ground
  ,                                       !- Number of Vertices
  100, 50, 4,                             !- X,Y,Z Vertex 1 {m}
  100, 50, 0,                             !- X,Y,Z Vertex 2 {m}
  0, 50, 0,                               !- X,Y,Z Vertex 3 {m}
  0, 50, 4;                               !- X,Y,Z Vertex 4 {m}

OS:Surface,
  {9098fa30-c514-4fa1-9a49-1b947b5c68d5}, !- Handle
  Story 2 Core Space Exterior Wall 2,     !- Name
  Wall,                                   !- Surface Type
  ,                                       !- Construction Name
  {54704ed5-65aa-4316-bc5a-6d9414fc084b}, !- Space Name
  Outdoors,                               !- Outside Boundary Condition
  ,                                       !- Outside Boundary Condition Object
  SunExposed,                             !- Sun Exposure
  WindExposed,                            !- Wind Exposure
  ,                                       !- View Factor to Ground
  ,                                       !- Number of Vertices
  100, 0, 4,                              !- X,Y,Z Vertex 1 {m}
  100, 0, 0,                              !- X,Y,Z Vertex 2 {m}
  100, 50, 0,                             !- X,Y,Z Vertex 3 {m}
  100, 50, 4;                             !- X,Y,Z Vertex 4 {m}

OS:Surface,
  {95c306be-b09e-4c0a-a7f0-648f1ca57caf}, !- Handle
  Story 2 Core Space Exterior Wall 3,     !- Name
  Wall,                                   !- Surface Type
  ,                                       !- Construction Name
  {54704ed5-65aa-4316-bc5a-6d9414fc084b}, !- Space Name
  Outdoors,                               !- Outside Boundary Condition
  ,                                       !- Outside Boundary Condition Object
  SunExposed,                             !- Sun Exposure
  WindExposed,                            !- Wind Exposure
  ,                                       !- View Factor to Ground
  ,                                       !- Number of Vertices
  0, 0, 4,                                !- X,Y,Z Vertex 1 {m}
  0, 0, 0,                                !- X,Y,Z Vertex 2 {m}
  100, 0, 0,                              !- X,Y,Z Vertex 3 {m}
  100, 0, 4;                              !- X,Y,Z Vertex 4 {m}

OS:Surface,
  {3c8a2a00-6d24-4cc8-821a-788683adcb9a}, !- Handle
  Story 2 Core Space Exterior Roof,       !- Name
  RoofCeiling,                            !- Surface Type
  ,                                       !- Construction Name
  {54704ed5-65aa-4316-bc5a-6d9414fc084b}, !- Space Name
  Outdoors,                               !- Outside Boundary Condition
  ,                                       !- Outside Boundary Condition Object
  SunExposed,                             !- Sun Exposure
  WindExposed,                            !- Wind Exposure
  ,                                       !- View Factor to Ground
  ,                                       !- Number of Vertices
  100, 0, 4,                              !- X,Y,Z Vertex 1 {m}
  100, 50, 4,                             !- X,Y,Z Vertex 2 {m}
  0, 50, 4,                               !- X,Y,Z Vertex 3 {m}
  0, 0, 4;                                !- X,Y,Z Vertex 4 {m}

OS:ThermalZone,
  {3e6a28cd-18ab-4978-9cc8-da5ec1e5a646}, !- Handle
  Story 1 Core Thermal Zone,              !- Name
  ,                                       !- Multiplier
  ,                                       !- Ceiling Height {m}
  ,                                       !- Volume {m3}
  ,                                       !- Floor Area {m2}
  ,                                       !- Zone Inside Convection Algorithm
  ,                                       !- Zone Outside Convection Algorithm
  ,                                       !- Zone Conditioning Equipment List Name
  {f680de86-3655-461a-a0be-bf4b65bc0609}, !- Zone Air Inlet Port List
  {3c0e2be1-c808-4803-a80c-eb3481e9e973}, !- Zone Air Exhaust Port List
  {54fff794-5cc0-423e-ad51-c30020c0bf2e}, !- Zone Air Node Name
  {2da775a2-983f-496b-b14f-8eac05878ace}, !- Zone Return Air Port List
  ,                                       !- Primary Daylighting Control Name
  ,                                       !- Fraction of Zone Controlled by Primary Daylighting Control
  ,                                       !- Secondary Daylighting Control Name
  ,                                       !- Fraction of Zone Controlled by Secondary Daylighting Control
  ,                                       !- Illuminance Map Name
  ,                                       !- Group Rendering Name
  {6fc27efb-e91d-45aa-8e77-38232309a9a8}, !- Thermostat Name
  No;                                     !- Use Ideal Air Loads

OS:Node,
  {7ac50efd-6bf0-4b69-b20b-bffd51661123}, !- Handle
  Node 1,                                 !- Name
  {54fff794-5cc0-423e-ad51-c30020c0bf2e}, !- Inlet Port
  ;                                       !- Outlet Port

OS:Connection,
  {54fff794-5cc0-423e-ad51-c30020c0bf2e}, !- Handle
  {3e6a28cd-18ab-4978-9cc8-da5ec1e5a646}, !- Source Object
  11,                                     !- Outlet Port
  {7ac50efd-6bf0-4b69-b20b-bffd51661123}, !- Target Object
  2;                                      !- Inlet Port

OS:PortList,
  {f680de86-3655-461a-a0be-bf4b65bc0609}, !- Handle
  {3e6a28cd-18ab-4978-9cc8-da5ec1e5a646}, !- HVAC Component
  {133088b3-089d-44cf-a594-0ef6da32de57}; !- Port 1

OS:PortList,
  {3c0e2be1-c808-4803-a80c-eb3481e9e973}, !- Handle
  {3e6a28cd-18ab-4978-9cc8-da5ec1e5a646}; !- HVAC Component

OS:PortList,
  {2da775a2-983f-496b-b14f-8eac05878ace}, !- Handle
  {3e6a28cd-18ab-4978-9cc8-da5ec1e5a646}, !- HVAC Component
  {6c1933ae-ea6d-4fe7-b8b6-73a9e78c90e2}; !- Port 1

OS:Sizing:Zone,
  {0c1d1e65-4181-4498-9636-2b6ba3e06731}, !- Handle
  {3e6a28cd-18ab-4978-9cc8-da5ec1e5a646}, !- Zone or ZoneList Name
  SupplyAirTemperature,                   !- Zone Cooling Design Supply Air Temperature Input Method
  14,                                     !- Zone Cooling Design Supply Air Temperature {C}
  11.11,                                  !- Zone Cooling Design Supply Air Temperature Difference {deltaC}
  SupplyAirTemperature,                   !- Zone Heating Design Supply Air Temperature Input Method
  40,                                     !- Zone Heating Design Supply Air Temperature {C}
  11.11,                                  !- Zone Heating Design Supply Air Temperature Difference {deltaC}
  0.0085,                                 !- Zone Cooling Design Supply Air Humidity Ratio {kg-H2O/kg-air}
  0.008,                                  !- Zone Heating Design Supply Air Humidity Ratio {kg-H2O/kg-air}
  ,                                       !- Zone Heating Sizing Factor
  ,                                       !- Zone Cooling Sizing Factor
  DesignDay,                              !- Cooling Design Air Flow Method
  ,                                       !- Cooling Design Air Flow Rate {m3/s}
  ,                                       !- Cooling Minimum Air Flow per Zone Floor Area {m3/s-m2}
  ,                                       !- Cooling Minimum Air Flow {m3/s}
  ,                                       !- Cooling Minimum Air Flow Fraction
  DesignDay,                              !- Heating Design Air Flow Method
  ,                                       !- Heating Design Air Flow Rate {m3/s}
  ,                                       !- Heating Maximum Air Flow per Zone Floor Area {m3/s-m2}
  ,                                       !- Heating Maximum Air Flow {m3/s}
  ,                                       !- Heating Maximum Air Flow Fraction
  No,                                     !- Account for Dedicated Outdoor Air System
  NeutralSupplyAir,                       !- Dedicated Outdoor Air System Control Strategy
  autosize,                               !- Dedicated Outdoor Air Low Setpoint Temperature for Design {C}
  autosize;                               !- Dedicated Outdoor Air High Setpoint Temperature for Design {C}

OS:ZoneHVAC:EquipmentList,
  {1bf1ef46-e8bf-4597-af68-43103e4a0bab}, !- Handle
  Zone HVAC Equipment List 1,             !- Name
  {3e6a28cd-18ab-4978-9cc8-da5ec1e5a646}, !- Thermal Zone
  ,                                       !- Load Distribution Scheme
  {5c69945c-7c68-4e7b-a573-626721bd467f}, !- Zone Equipment 1
  1,                                      !- Zone Equipment Cooling Sequence 1
  1,                                      !- Zone Equipment Heating or No-Load Sequence 1
  ,                                       !- Zone Equipment Sequential Cooling Fraction Schedule Name 1
  ;                                       !- Zone Equipment Sequential Heating Fraction Schedule Name 1

OS:ThermalZone,
  {92c308d1-2b82-4581-8bf4-cb862f798987}, !- Handle
  Story 2 Core Thermal Zone,              !- Name
  ,                                       !- Multiplier
  ,                                       !- Ceiling Height {m}
  ,                                       !- Volume {m3}
  ,                                       !- Floor Area {m2}
  ,                                       !- Zone Inside Convection Algorithm
  ,                                       !- Zone Outside Convection Algorithm
  ,                                       !- Zone Conditioning Equipment List Name
  {3859529f-ba61-4b54-8a47-a11cdd012a35}, !- Zone Air Inlet Port List
  {e1f5efd3-719b-48d4-af7a-0f462c6a6aa5}, !- Zone Air Exhaust Port List
  {79adccf5-06ce-43a7-b70b-30ef752ffc74}, !- Zone Air Node Name
  {3e9954ac-065b-4bbf-897d-b090d7cfa6b8}, !- Zone Return Air Port List
  ,                                       !- Primary Daylighting Control Name
  ,                                       !- Fraction of Zone Controlled by Primary Daylighting Control
  ,                                       !- Secondary Daylighting Control Name
  ,                                       !- Fraction of Zone Controlled by Secondary Daylighting Control
  ,                                       !- Illuminance Map Name
  ,                                       !- Group Rendering Name
  {cbb8439d-2194-4762-ae2f-fc221283a7e2}, !- Thermostat Name
  No;                                     !- Use Ideal Air Loads

OS:Node,
  {bad6524a-70da-4fca-b730-e7b7f62834ec}, !- Handle
  Node 2,                                 !- Name
  {79adccf5-06ce-43a7-b70b-30ef752ffc74}, !- Inlet Port
  ;                                       !- Outlet Port

OS:Connection,
  {79adccf5-06ce-43a7-b70b-30ef752ffc74}, !- Handle
  {92c308d1-2b82-4581-8bf4-cb862f798987}, !- Source Object
  11,                                     !- Outlet Port
  {bad6524a-70da-4fca-b730-e7b7f62834ec}, !- Target Object
  2;                                      !- Inlet Port

OS:PortList,
  {3859529f-ba61-4b54-8a47-a11cdd012a35}, !- Handle
  {92c308d1-2b82-4581-8bf4-cb862f798987}, !- HVAC Component
  {8ff0e847-c427-4014-a4fd-63abd7869e53}; !- Port 1

OS:PortList,
  {e1f5efd3-719b-48d4-af7a-0f462c6a6aa5}, !- Handle
  {92c308d1-2b82-4581-8bf4-cb862f798987}; !- HVAC Component

OS:PortList,
  {3e9954ac-065b-4bbf-897d-b090d7cfa6b8}, !- Handle
  {92c308d1-2b82-4581-8bf4-cb862f798987}, !- HVAC Component
  {cb01b598-c0ab-4476-b2a7-d239171abd78}; !- Port 1

OS:Sizing:Zone,
  {f8f378e7-2582-48a0-9f7f-71045fdc3968}, !- Handle
  {92c308d1-2b82-4581-8bf4-cb862f798987}, !- Zone or ZoneList Name
  SupplyAirTemperature,                   !- Zone Cooling Design Supply Air Temperature Input Method
  14,                                     !- Zone Cooling Design Supply Air Temperature {C}
  11.11,                                  !- Zone Cooling Design Supply Air Temperature Difference {deltaC}
  SupplyAirTemperature,                   !- Zone Heating Design Supply Air Temperature Input Method
  40,                                     !- Zone Heating Design Supply Air Temperature {C}
  11.11,                                  !- Zone Heating Design Supply Air Temperature Difference {deltaC}
  0.0085,                                 !- Zone Cooling Design Supply Air Humidity Ratio {kg-H2O/kg-air}
  0.008,                                  !- Zone Heating Design Supply Air Humidity Ratio {kg-H2O/kg-air}
  ,                                       !- Zone Heating Sizing Factor
  ,                                       !- Zone Cooling Sizing Factor
  DesignDay,                              !- Cooling Design Air Flow Method
  ,                                       !- Cooling Design Air Flow Rate {m3/s}
  ,                                       !- Cooling Minimum Air Flow per Zone Floor Area {m3/s-m2}
  ,                                       !- Cooling Minimum Air Flow {m3/s}
  ,                                       !- Cooling Minimum Air Flow Fraction
  DesignDay,                              !- Heating Design Air Flow Method
  ,                                       !- Heating Design Air Flow Rate {m3/s}
  ,                                       !- Heating Maximum Air Flow per Zone Floor Area {m3/s-m2}
  ,                                       !- Heating Maximum Air Flow {m3/s}
  ,                                       !- Heating Maximum Air Flow Fraction
  No,                                     !- Account for Dedicated Outdoor Air System
  NeutralSupplyAir,                       !- Dedicated Outdoor Air System Control Strategy
  autosize,                               !- Dedicated Outdoor Air Low Setpoint Temperature for Design {C}
  autosize;                               !- Dedicated Outdoor Air High Setpoint Temperature for Design {C}

OS:ZoneHVAC:EquipmentList,
  {28fa9a68-e488-4f20-b3dd-d99de650ef90}, !- Handle
  Zone HVAC Equipment List 2,             !- Name
  {92c308d1-2b82-4581-8bf4-cb862f798987}, !- Thermal Zone
  ,                                       !- Load Distribution Scheme
  {ab01f06e-7dc8-47ee-89d3-c9e20e0906f7}, !- Zone Equipment 1
  1,                                      !- Zone Equipment Cooling Sequence 1
  1,                                      !- Zone Equipment Heating or No-Load Sequence 1
  ,                                       !- Zone Equipment Sequential Cooling Fraction Schedule Name 1
  ;                                       !- Zone Equipment Sequential Heating Fraction Schedule Name 1

OS:SubSurface,
  {291eb3d4-c4f4-41d2-95f2-a522a62198b2}, !- Handle
  Story 2 Core Space Exterior Wall 3 Window, !- Name
  FixedWindow,                            !- Sub Surface Type
  ,                                       !- Construction Name
  {95c306be-b09e-4c0a-a7f0-648f1ca57caf}, !- Surface Name
  ,                                       !- Outside Boundary Condition Object
  ,                                       !- View Factor to Ground
  ,                                       !- Frame and Divider Name
  ,                                       !- Multiplier
  ,                                       !- Number of Vertices
  0.0254, 0, 2.60081321311226,            !- X,Y,Z Vertex 1 {m}
  0.0254, 0, 1,                           !- X,Y,Z Vertex 2 {m}
  99.9746, 0, 1,                          !- X,Y,Z Vertex 3 {m}
  99.9746, 0, 2.60081321311226;           !- X,Y,Z Vertex 4 {m}

OS:SubSurface,
  {6445858f-9820-4438-a2e2-1c6d49769766}, !- Handle
  Story 2 Core Space Exterior Wall 1 Window, !- Name
  FixedWindow,                            !- Sub Surface Type
  ,                                       !- Construction Name
  {998cbd36-2daf-4f9a-b54a-336fd0f0a625}, !- Surface Name
  ,                                       !- Outside Boundary Condition Object
  ,                                       !- View Factor to Ground
  ,                                       !- Frame and Divider Name
  ,                                       !- Multiplier
  ,                                       !- Number of Vertices
  99.9746, 50, 2.60081321311226,          !- X,Y,Z Vertex 1 {m}
  99.9746, 50, 1,                         !- X,Y,Z Vertex 2 {m}
  0.0253999999999905, 50, 1,              !- X,Y,Z Vertex 3 {m}
  0.0253999999999905, 50, 2.60081321311226; !- X,Y,Z Vertex 4 {m}

OS:SubSurface,
  {f6ae90ff-80ca-444e-9b7d-7e47a02c42e4}, !- Handle
  Story 2 Core Space Exterior Wall 2 Window, !- Name
  FixedWindow,                            !- Sub Surface Type
  ,                                       !- Construction Name
  {9098fa30-c514-4fa1-9a49-1b947b5c68d5}, !- Surface Name
  ,                                       !- Outside Boundary Condition Object
  ,                                       !- View Factor to Ground
  ,                                       !- Frame and Divider Name
  ,                                       !- Multiplier
  ,                                       !- Number of Vertices
  100, 0.0254, 2.60162725328934,          !- X,Y,Z Vertex 1 {m}
  100, 0.0254, 1,                         !- X,Y,Z Vertex 2 {m}
  100, 49.9746, 1,                        !- X,Y,Z Vertex 3 {m}
  100, 49.9746, 2.60162725328934;         !- X,Y,Z Vertex 4 {m}

OS:SubSurface,
  {aea543cc-294e-4cf9-8f0a-7b8c901740d5}, !- Handle
  Story 2 Core Space Exterior Wall Window, !- Name
  FixedWindow,                            !- Sub Surface Type
  ,                                       !- Construction Name
  {4c79ca6c-d755-41bc-bf15-eaae99c57fa6}, !- Surface Name
  ,                                       !- Outside Boundary Condition Object
  ,                                       !- View Factor to Ground
  ,                                       !- Frame and Divider Name
  ,                                       !- Multiplier
  ,                                       !- Number of Vertices
  0, 49.9746, 2.60162725328934,           !- X,Y,Z Vertex 1 {m}
  0, 49.9746, 1,                          !- X,Y,Z Vertex 2 {m}
  0, 0.0254000000000048, 1,               !- X,Y,Z Vertex 3 {m}
  0, 0.0254000000000048, 2.60162725328934; !- X,Y,Z Vertex 4 {m}

OS:SubSurface,
  {eba88db4-3475-4098-83ca-c9bd77a5e497}, !- Handle
  Story 1 Core Space Exterior Wall Window, !- Name
  FixedWindow,                            !- Sub Surface Type
  ,                                       !- Construction Name
  {b30bc379-2a0d-4daa-b5dd-488e7cbd4470}, !- Surface Name
  ,                                       !- Outside Boundary Condition Object
  ,                                       !- View Factor to Ground
  ,                                       !- Frame and Divider Name
  ,                                       !- Multiplier
  ,                                       !- Number of Vertices
  0.0254, 0, 2.60081321311226,            !- X,Y,Z Vertex 1 {m}
  0.0254, 0, 1,                           !- X,Y,Z Vertex 2 {m}
  99.9746, 0, 1,                          !- X,Y,Z Vertex 3 {m}
  99.9746, 0, 2.60081321311226;           !- X,Y,Z Vertex 4 {m}

OS:SubSurface,
  {85f3a409-18bf-472e-8297-66ff1ad27b16}, !- Handle
  Story 1 Core Space Exterior Wall 1 Window, !- Name
  FixedWindow,                            !- Sub Surface Type
  ,                                       !- Construction Name
  {e7e0894c-4834-48e8-abd1-b7362af57168}, !- Surface Name
  ,                                       !- Outside Boundary Condition Object
  ,                                       !- View Factor to Ground
  ,                                       !- Frame and Divider Name
  ,                                       !- Multiplier