
OS:Version,
  {9eccad39-fc7f-4163-8d8b-ee57b4e85d42}, !- Handle
  3.3.0;                                  !- Version Identifier

OS:BuildingStory,
  {a2cd370a-9aa8-4f6c-b8f6-8d38dc1ae170}, !- Handle
  Story 1,                                !- Name
  0,                                      !- Nominal Z Coordinate {m}
  4,                                      !- Nominal Floor to Floor Height {m}
  ,                                       !- Default Construction Set Name
  ,                                       !- Default Schedule Set Name
  ;                                       !- Group Rendering Name

OS:Space,
  {62928d3f-8b35-4f33-884c-5ea5b67dfae6}, !- Handle
  Story 1 Core Space,                     !- Name
  ,                                       !- Space Type Name
  ,                                       !- Default Construction Set Name
  ,                                       !- Default Schedule Set Name
  -0,                                     !- Direction of Relative North {deg}
  0,                                      !- X Origin {m}
  0,                                      !- Y Origin {m}
  0,                                      !- Z Origin {m}
  {a2cd370a-9aa8-4f6c-b8f6-8d38dc1ae170}, !- Building Story Name
  {04573e65-54e2-4f2e-b5fe-e04ff3860d2a}; !- Thermal Zone Name

OS:Surface,
  {1e9deb9b-2bfa-4e38-a2c5-900ce53b3af5}, !- Handle
  Story 1 Core Space Exterior Ground Floor, !- Name
  Floor,                                  !- Surface Type
  ,                                       !- Construction Name
  {62928d3f-8b35-4f33-884c-5ea5b67dfae6}, !- Space Name
  Ground,                                 !- Outside Boundary Condition
  ,                                       !- Outside Boundary Condition Object
  NoSun,                                  !- Sun Exposure
  NoWind,                                 !- Wind Exposure
  ,                                       !- View Factor to Ground
  ,                                       !- Number of Vertices
  0, 0, 0,                                !- X,Y,Z Vertex 1 {m}
  0, 50, 0,                               !- X,Y,Z Vertex 2 {m}
  100, 50, 0,                             !- X,Y,Z Vertex 3 {m}
  100, 0, 0;                              !- X,Y,Z Vertex 4 {m}

OS:Surface,
  {803ba806-a4a7-4c16-a63e-aaffa7c60445}, !- Handle
  Story 1 Core Space Exterior Wall 3,     !- Name
  Wall,                                   !- Surface Type
  ,                                       !- Construction Name
  {62928d3f-8b35-4f33-884c-5ea5b67dfae6}, !- Space Name
  Outdoors,                               !- Outside Boundary Condition
  ,                                       !- Outside Boundary Condition Object
  SunExposed,                             !- Sun Exposure
  WindExposed,                            !- Wind Exposure
  ,                                       !- View Factor to Ground
  ,                                       !- Number of Vertices
  0, 50, 4,                               !- X,Y,Z Vertex 1 {m}
  0, 50, 0,                               !- X,Y,Z Vertex 2 {m}
  0, 0, 0,                                !- X,Y,Z Vertex 3 {m}
  0, 0, 4;                                !- X,Y,Z Vertex 4 {m}

OS:Surface,
  {37e1197f-22aa-4e66-8671-c432b1465b6b}, !- Handle
  Story 1 Core Space Exterior Wall 2,     !- Name
  Wall,                                   !- Surface Type
  ,                                       !- Construction Name
  {62928d3f-8b35-4f33-884c-5ea5b67dfae6}, !- Space Name
  Outdoors,                               !- Outside Boundary Condition
  ,                                       !- Outside Boundary Condition Object
  SunExposed,                             !- Sun Exposure
  WindExposed,                            !- Wind Exposure
  ,                                       !- View Factor to Ground
  ,                                       !- Number of Vertices
  100, 50, 4,                             !- X,Y,Z Vertex 1 {m}
  100, 50, 0,                             !- X,Y,Z Vertex 2 {m}
  0, 50, 0,                               !- X,Y,Z Vertex 3 {m}
  0, 50, 4;                               !- X,Y,Z Vertex 4 {m}

OS:Surface,
  {7e47cbf1-527e-4d33-b655-86c6696c5bd1}, !- Handle
  Story 1 Core Space Exterior Wall,       !- Name
  Wall,                                   !- Surface Type
  ,                                       !- Construction Name
  {62928d3f-8b35-4f33-884c-5ea5b67dfae6}, !- Space Name
  Outdoors,                               !- Outside Boundary Condition
  ,                                       !- Outside Boundary Condition Object
  SunExposed,                             !- Sun Exposure
  WindExposed,                            !- Wind Exposure
  ,                                       !- View Factor to Ground
  ,                                       !- Number of Vertices
  100, 0, 4,                              !- X,Y,Z Vertex 1 {m}
  100, 0, 0,                              !- X,Y,Z Vertex 2 {m}
  100, 50, 0,                             !- X,Y,Z Vertex 3 {m}
  100, 50, 4;                             !- X,Y,Z Vertex 4 {m}

OS:Surface,
  {a5e8994d-9853-4348-8ddb-67fbc7b44796}, !- Handle
  Story 1 Core Space Exterior Wall 1,     !- Name
  Wall,                                   !- Surface Type
  ,                                       !- Construction Name
  {62928d3f-8b35-4f33-884c-5ea5b67dfae6}, !- Space Name
  Outdoors,                               !- Outside Boundary Condition
  ,                                       !- Outside Boundary Condition Object
  SunExposed,                             !- Sun Exposure
  WindExposed,                            !- Wind Exposure
  ,                                       !- View Factor to Ground
  ,                                       !- Number of Vertices
  0, 0, 4,                                !- X,Y,Z Vertex 1 {m}
  0, 0, 0,                                !- X,Y,Z Vertex 2 {m}
  100, 0, 0,                              !- X,Y,Z Vertex 3 {m}
  100, 0, 4;                              !- X,Y,Z Vertex 4 {m}

OS:Surface,
  {27f36b14-9d40-4d1f-8204-3cddf0e14b08}, !- Handle
  Story 1 Core Space Exterior Roof,       !- Name
  RoofCeiling,                            !- Surface Type
  ,                                       !- Construction Name
  {62928d3f-8b35-4f33-884c-5ea5b67dfae6}, !- Space Name
  Outdoors,                               !- Outside Boundary Condition
  ,                                       !- Outside Boundary Condition Object
  SunExposed,                             !- Sun Exposure
  WindExposed,                            !- Wind Exposure
  ,                                       !- View Factor to Ground
  ,                                       !- Number of Vertices
  100, 0, 4,                              !- X,Y,Z Vertex 1 {m}
  100, 50, 4,                             !- X,Y,Z Vertex 2 {m}
  0, 50, 4,                               !- X,Y,Z Vertex 3 {m}
  0, 0, 4;                                !- X,Y,Z Vertex 4 {m}

OS:ThermalZone,
  {04573e65-54e2-4f2e-b5fe-e04ff3860d2a}, !- Handle
  Story 1 Core Thermal Zone,              !- Name
  ,                                       !- Multiplier
  ,                                       !- Ceiling Height {m}
  ,                                       !- Volume {m3}
  ,                                       !- Floor Area {m2}
  ,                                       !- Zone Inside Convection Algorithm
  ,                                       !- Zone Outside Convection Algorithm
  ,                                       !- Zone Conditioning Equipment List Name
  {edce5067-9ce3-49d2-8418-60125e1f0f9d}, !- Zone Air Inlet Port List
  {5e291b1b-8a3b-48ce-868a-a769d3056cab}, !- Zone Air Exhaust Port List
  {e85bae07-0a68-4621-aeed-8f36431225c9}, !- Zone Air Node Name
  {21522015-ab44-4cd2-8cef-0bc05f05477b}, !- Zone Return Air Port List
  ,                                       !- Primary Daylighting Control Name
  ,                                       !- Fraction of Zone Controlled by Primary Daylighting Control
  ,                                       !- Secondary Daylighting Control Name
  ,                                       !- Fraction of Zone Controlled by Secondary Daylighting Control
  ,                                       !- Illuminance Map Name
  ,                                       !- Group Rendering Name
  {c9378dbf-8f4a-48f5-a943-0450622c1920}, !- Thermostat Name
  No;                                     !- Use Ideal Air Loads

OS:Node,
  {23e65af5-2154-4327-909b-27789089a72e}, !- Handle
  Node 1,                                 !- Name
  {e85bae07-0a68-4621-aeed-8f36431225c9}, !- Inlet Port
  ;                                       !- Outlet Port

OS:Connection,
  {e85bae07-0a68-4621-aeed-8f36431225c9}, !- Handle
  {04573e65-54e2-4f2e-b5fe-e04ff3860d2a}, !- Source Object
  11,                                     !- Outlet Port
  {23e65af5-2154-4327-909b-27789089a72e}, !- Target Object
  2;                                      !- Inlet Port

OS:PortList,
  {edce5067-9ce3-49d2-8418-60125e1f0f9d}, !- Handle
  {04573e65-54e2-4f2e-b5fe-e04ff3860d2a}, !- HVAC Component
  {1ac588d9-041c-4873-9d45-6ff54fcb7ce8}; !- Port 1

OS:PortList,
  {5e291b1b-8a3b-48ce-868a-a769d3056cab}, !- Handle
  {04573e65-54e2-4f2e-b5fe-e04ff3860d2a}, !- HVAC Component
  {f95c0975-b48d-4c89-876a-b11258015911}; !- Port 1

OS:PortList,
  {21522015-ab44-4cd2-8cef-0bc05f05477b}, !- Handle
  {04573e65-54e2-4f2e-b5fe-e04ff3860d2a}; !- HVAC Component

OS:Sizing:Zone,
  {ffb20d30-f01e-4b05-818e-420410512592}, !- Handle
  {04573e65-54e2-4f2e-b5fe-e04ff3860d2a}, !- Zone or ZoneList Name
  SupplyAirTemperature,                   !- Zone Cooling Design Supply Air Temperature Input Method
  14,                                     !- Zone Cooling Design Supply Air Temperature {C}
  11.11,                                  !- Zone Cooling Design Supply Air Temperature Difference {deltaC}
  SupplyAirTemperature,                   !- Zone Heating Design Supply Air Temperature Input Method
  40,                                     !- Zone Heating Design Supply Air Temperature {C}
  11.11,                                  !- Zone Heating Design Supply Air Temperature Difference {deltaC}
  0.0085,                                 !- Zone Cooling Design Supply Air Humidity Ratio {kg-H2O/kg-air}
  0.008,                                  !- Zone Heating Design Supply Air Humidity Ratio {kg-H2O/kg-air}
  ,                                       !- Zone Heating Sizing Factor
  ,                                       !- Zone Cooling Sizing Factor
  DesignDay,                              !- Cooling Design Air Flow Method
  ,                                       !- Cooling Design Air Flow Rate {m3/s}
  ,                                       !- Cooling Minimum Air Flow per Zone Floor Area {m3/s-m2}
  ,                                       !- Cooling Minimum Air Flow {m3/s}
  ,                                       !- Cooling Minimum Air Flow Fraction
  DesignDay,                              !- Heating Design Air Flow Method
  ,                                       !- Heating Design Air Flow Rate {m3/s}
  ,                                       !- Heating Maximum Air Flow per Zone Floor Area {m3/s-m2}
  ,                                       !- Heating Maximum Air Flow {m3/s}
  ,                                       !- Heating Maximum Air Flow Fraction
  No,                                     !- Account for Dedicated Outdoor Air System
  NeutralSupplyAir,                       !- Dedicated Outdoor Air System Control Strategy
  autosize,                               !- Dedicated Outdoor Air Low Setpoint Temperature for Design {C}
  autosize;                               !- Dedicated Outdoor Air High Setpoint Temperature for Design {C}

OS:ZoneHVAC:EquipmentList,
  {f8adea14-fd99-4b6a-9ce8-56b5a2f6bf66}, !- Handle
  Zone HVAC Equipment List 1,             !- Name
  {04573e65-54e2-4f2e-b5fe-e04ff3860d2a}, !- Thermal Zone
  ,                                       !- Load Distribution Scheme
  {a1b9cb29-4e40-4b42-a696-7950dfdf5774}, !- Zone Equipment 1
  1,                                      !- Zone Equipment Cooling Sequence 1
  1,                                      !- Zone Equipment Heating or No-Load Sequence 1
  ,                                       !- Zone Equipment Sequential Cooling Fraction Schedule Name 1
  ;                                       !- Zone Equipment Sequential Heating Fraction Schedule Name 1

OS:SubSurface,
  {d2a15449-97e9-4ad5-8b1b-d3b90c034874}, !- Handle
  Story 1 Core Space Exterior Wall 1 Window, !- Name
  FixedWindow,                            !- Sub Surface Type
  ,                                       !- Construction Name
  {a5e8994d-9853-4348-8ddb-67fbc7b44796}, !- Surface Name
  ,                                       !- Outside Boundary Condition Object
  ,                                       !- View Factor to Ground
  ,                                       !- Frame and Divider Name
  ,                                       !- Multiplier
  ,                                       !- Number of Vertices
  0.0254, 0, 2.60081321311226,            !- X,Y,Z Vertex 1 {m}
  0.0254, 0, 1,                           !- X,Y,Z Vertex 2 {m}
  99.9746, 0, 1,                          !- X,Y,Z Vertex 3 {m}
  99.9746, 0, 2.60081321311226;           !- X,Y,Z Vertex 4 {m}

OS:SubSurface,
  {4a0fe03a-bb44-4e03-9958-d0cdf62ee01d}, !- Handle
  Story 1 Core Space Exterior Wall 2 Window, !- Name
  FixedWindow,                            !- Sub Surface Type
  ,                                       !- Construction Name
  {37e1197f-22aa-4e66-8671-c432b1465b6b}, !- Surface Name
  ,                                       !- Outside Boundary Condition Object
  ,                                       !- View Factor to Ground
  ,                                       !- Frame and Divider Name
  ,                                       !- Multiplier
  ,                                       !- Number of Vertices
  99.9746, 50, 2.60081321311226,          !- X,Y,Z Vertex 1 {m}
  99.9746, 50, 1,                         !- X,Y,Z Vertex 2 {m}
  0.0253999999999905, 50, 1,              !- X,Y,Z Vertex 3 {m}
  0.0253999999999905, 50, 2.60081321311226; !- X,Y,Z Vertex 4 {m}

OS:SubSurface,
  {fb83ee94-1acd-400e-95a8-bd8f6ac5a957}, !- Handle
  Story 1 Core Space Exterior Wall 3 Window, !- Name
  FixedWindow,                            !- Sub Surface Type
  ,                                       !- Construction Name
  {803ba806-a4a7-4c16-a63e-aaffa7c60445}, !- Surface Name
  ,                                       !- Outside Boundary Condition Object
  ,                                       !- View Factor to Ground
  ,                                       !- Frame and Divider Name
  ,                                       !- Multiplier
  ,                                       !- Number of Vertices
  0, 49.9746, 2.60162725328934,           !- X,Y,Z Vertex 1 {m}
  0, 49.9746, 1,                          !- X,Y,Z Vertex 2 {m}
  0, 0.0254000000000048, 1,               !- X,Y,Z Vertex 3 {m}
  0, 0.0254000000000048, 2.60162725328934; !- X,Y,Z Vertex 4 {m}

OS:SubSurface,
  {bd846201-e546-4a95-9473-6448faf6a630}, !- Handle
  Story 1 Core Space Exterior Wall Window, !- Name
  FixedWindow,                            !- Sub Surface Type
  ,                                       !- Construction Name
  {7e47cbf1-527e-4d33-b655-86c6696c5bd1}, !- Surface Name
  ,                                       !- Outside Boundary Condition Object
  ,                                       !- View Factor to Ground
  ,                                       !- Frame and Divider Name
  ,                                       !- Multiplier
  ,                                       !- Number of Vertices
  100, 0.0254, 2.60162725328934,          !- X,Y,Z Vertex 1 {m}
  100, 0.0254, 1,                         !- X,Y,Z Vertex 2 {m}
  100, 49.9746, 1,                        !- X,Y,Z Vertex 3 {m}
  100, 49.9746, 2.60162725328934;         !- X,Y,Z Vertex 4 {m}

OS:Schedule:Ruleset,
  {e91ad963-3cc2-4257-8981-72419e384e98}, !- Handle
  Cooling Sch,                            !- Name
  {20022bcd-4ee4-42dd-9fbb-7b716dccd4f5}, !- Schedule Type Limits Name
  {d068f066-5de8-4de8-8bb8-f066354d9163}; !- Default Day Schedule Name

OS:Schedule:Day,
  {d068f066-5de8-4de8-8bb8-f066354d9163}, !- Handle
  Cooling Sch Default,                    !- Name
  {20022bcd-4ee4-42dd-9fbb-7b716dccd4f5}, !- Schedule Type Limits Name
  ,                                       !- Interpolate to Timestep
  24,                                     !- Hour 1
  0,                                      !- Minute 1
  28;                                     !- Value Until Time 1

OS:Schedule:Ruleset,
  {90160bed-bd45-4bd3-add9-37845bbf295f}, !- Handle
  Heating Sch,                            !- Name
  {20022bcd-4ee4-42dd-9fbb-7b716dccd4f5}, !- Schedule Type Limits Name
  {69ba1451-0a5d-4cc8-b2a0-7af971df50ce}; !- Default Day Schedule Name

OS:Schedule:Day,
  {69ba1451-0a5d-4cc8-b2a0-7af971df50ce}, !- Handle
  Heating Sch Default,                    !- Name
  {20022bcd-4ee4-42dd-9fbb-7b716dccd4f5}, !- Schedule Type Limits Name
  ,                                       !- Interpolate to Timestep
  24,                                     !- Hour 1
  0,                                      !- Minute 1
  24;                                     !- Value Until Time 1

OS:ThermostatSetpoint:DualSetpoint,
  {c9378dbf-8f4a-48f5-a943-0450622c1920}, !- Handle
  Thermostat Setpoint Dual Setpoint 1,    !- Name
  {90160bed-bd45-4bd3-add9-37845bbf295f}, !- Heating Setpoint Temperature Schedule Name
  {e91ad963-3cc2-4257-8981-72419e384e98}; !- Cooling Setpoint Temperature Schedule Name

OS:ScheduleTypeLimits,
  {20022bcd-4ee4-42dd-9fbb-7b716dccd4f5}, !- Handle
  Temperature,                            !- Name
  ,                                       !- Lower Limit Value
  ,                                       !- Upper Limit Value
  Continuous,                             !- Numeric Type
  Temperature;                            !- Unit Type

OS:DefaultConstructionSet,
  {07cba0ea-d904-4e78-b01a-5e7dc71ca011}, !- Handle
  ASHRAE_189.1-2009_ClimateZone 4-5 (mdoff)_ConstSet, !- Name
  {19cc0d67-9519-4d3f-98cc-83dd9698cdc3}, !- Default Exterior Surface Constructions Name
  {a967ff76-1ebc-4b49-aca3-8e4770a4c3aa}, !- Default Interior Surface Constructions Name
  {01a4ab1a-6024-4cab-a606-a42f058eeaa2}, !- Default Ground Contact Surface Constructions Name
  {73ba36a2-f43d-4914-a0ee-15e0b4382e8e}, !- Default Exterior SubSurface Constructions Name
  {c9317b18-6b5c-4456-afa7-b7f1dc57a165}, !- Default Interior SubSurface Constructions Name
  {a987ebce-5b2c-4ddf-a04e-ffac167b214c}, !- Interior Partition Construction Name
  ,                                       !- Space Shading Construction Name
  ,                                       !- Building Shading Construction Name
  ,                                       !- Site Shading Construction Name
  ;                                       !- Adiabatic Surface Construction Name

OS:DefaultSurfaceConstructions,
  {19cc0d67-9519-4d3f-98cc-83dd9698cdc3}, !- Handle
  ASHRAE_189.1-2009_ClimateZone 4-5 (mdoff)_Exterior_DefSurfCons, !- Name
  {f027f21b-a854-45ae-abd4-f4669afa93f0}, !- Floor Construction Name
  {38d83b9c-e88f-4649-8389-5ee34f832553}, !- Wall Construction Name
  {ea3e9417-53e2-41b3-94bf-c44a79fc5f9a}; !- Roof Ceiling Construction Name

OS:DefaultSurfaceConstructions,
  {a967ff76-1ebc-4b49-aca3-8e4770a4c3aa}, !- Handle
  000_Interior_DefSurfCons,               !- Name
  {5b1763af-9e57-4975-8e8b-22e7f2eb8040}, !- Floor Construction Name
  {d33fd507-07df-450d-a0a6-3fd9dddd9b7c}, !- Wall Construction Name
  {02d904e9-377e-4318-b548-46628efc13a3}; !- Roof Ceiling Construction Name

OS:DefaultSurfaceConstructions,
  {01a4ab1a-6024-4cab-a606-a42f058eeaa2}, !- Handle
  000_Ground_DefSurfCons,                 !- Name
  {f027f21b-a854-45ae-abd4-f4669afa93f0}, !- Floor Construction Name
  {f027f21b-a854-45ae-abd4-f4669afa93f0}, !- Wall Construction Name
  {f027f21b-a854-45ae-abd4-f4669afa93f0}; !- Roof Ceiling Construction Name

OS:DefaultSubSurfaceConstructions,
  {73ba36a2-f43d-4914-a0ee-15e0b4382e8e}, !- Handle
  ASHRAE_189.1-2009_ClimateZone 4-5 (mdoff)_Exterior_DefSubCons, !- Name
  {0aac0f5c-54c6-4199-a3be-dfc26e931c52}, !- Fixed Window Construction Name
  {0aac0f5c-54c6-4199-a3be-dfc26e931c52}, !- Operable Window Construction Name
  {82599f42-cd4b-4ae7-ac8d-b7623eb7a5ed}, !- Door Construction Name
  {8e42203a-ad13-4a55-a3f6-4fcc428d9f99}, !- Glass Door Construction Name
  ,                                       !- Overhead Door Construction Name
  {8e42203a-ad13-4a55-a3f6-4fcc428d9f99}, !- Skylight Construction Name
  {6dce13d4-d499-4032-a037-ecb6d69badf0}, !- Tubular Daylight Dome Construction Name
  {6dce13d4-d499-4032-a037-ecb6d69badf0}; !- Tubular Daylight Diffuser Construction Name

OS:DefaultSubSurfaceConstructions,
  {c9317b18-6b5c-4456-afa7-b7f1dc57a165}, !- Handle
  000_Interior_DefSubCons,                !- Name
  {6dce13d4-d499-4032-a037-ecb6d69badf0}, !- Fixed Window Construction Name
  {6dce13d4-d499-4032-a037-ecb6d69badf0}, !- Operable Window Construction Name
  {bb21731a-3ca0-4043-a946-77ab850da64f}, !- Door Construction Name
  {8e42203a-ad13-4a55-a3f6-4fcc428d9f99}, !- Glass Door Construction Name
  ,                                       !- Overhead Door Construction Name
  {8e42203a-ad13-4a55-a3f6-4fcc428d9f99}, !- Skylight Construction Name
  {6dce13d4-d499-4032-a037-ecb6d69badf0}, !- Tubular Daylight Dome Construction Name
  {6dce13d4-d499-4032-a037-ecb6d69badf0}; !- Tubular Daylight Diffuser Construction Name

OS:Construction,
  {a987ebce-5b2c-4ddf-a04e-ffac167b214c}, !- Handle
  000_Interior Partition,                 !- Name
  ,                                       !- Surface Rendering Name
  {79d040aa-3d11-45f8-b1d0-105e53750959}; !- Layer 1

OS:Construction,
  {f027f21b-a854-45ae-abd4-f4669afa93f0}, !- Handle
  000_ExtSlabCarpet_4in_ClimateZone 1-8,  !- Name
  ,                                       !- Surface Rendering Name
  {2d9c6455-9e35-406d-9fe0-1b5c2ff60877}, !- Layer 1
  {4e5461c0-1e36-43c1-890d-d2dde4f5e972}; !- Layer 2

OS:Construction,
  {38d83b9c-e88f-4649-8389-5ee34f832553}, !- Handle
  ASHRAE_189.1-2009_ExtWall_SteelFrame_ClimateZone 4-8, !- Name
  ,                                       !- Surface Rendering Name
  {345cb5b3-adcd-4d02-a3eb-41eec917f7e5}, !- Layer 1
  {0bc4bddc-d4e9-4cd5-b12b-8f350e983551}, !- Layer 2
  {a02cc56e-6960-4d9d-968d-7e0e7cab056d}; !- Layer 3

OS:Construction,
  {ea3e9417-53e2-41b3-94bf-c44a79fc5f9a}, !- Handle
  ASHRAE_189.1-2009_ExtRoof_IEAD_ClimateZone 2-5, !- Name
  ,                                       !- Surface Rendering Name
  {8ec0a552-4237-419c-be76-9d7ecc4a321b}, !- Layer 1
  {d1ff4811-fdd1-4cf1-b925-91db858debac}, !- Layer 2
  {6327926c-9cef-40c6-bea4-12a54832199d}; !- Layer 3

OS:Construction,
  {5b1763af-9e57-4975-8e8b-22e7f2eb8040}, !- Handle
  000_Interior Floor,                     !- Name
  ,                                       !- Surface Rendering Name
  {c1e3d479-5f69-4ebc-9796-d1f2a7333860}, !- Layer 1
  {e85f6339-bb93-4b1e-9d19-6be769cd3ce3}, !- Layer 2
  {270aebf5-4412-4624-b815-fe386733c083}; !- Layer 3

OS:Construction,
  {d33fd507-07df-450d-a0a6-3fd9dddd9b7c}, !- Handle
  000_Interior Wall,                      !- Name
  ,                                       !- Surface Rendering Name
  {778592f4-5127-4958-81a7-73a845470bd0}, !- Layer 1
  {7a6a4af4-32a6-48e6-93aa-06df8bbf4172}, !- Layer 2
  {778592f4-5127-4958-81a7-73a845470bd0}; !- Layer 3

OS:Construction,
  {02d904e9-377e-4318-b548-46628efc13a3}, !- Handle
  000_Interior Ceiling,                   !- Name
  ,                                       !- Surface Rendering Name
  {270aebf5-4412-4624-b815-fe386733c083}, !- Layer 1
  {e85f6339-bb93-4b1e-9d19-6be769cd3ce3}, !- Layer 2
  {c1e3d479-5f69-4ebc-9796-d1f2a7333860}; !- Layer 3

OS:Construction,
  {0aac0f5c-54c6-4199-a3be-dfc26e931c52}, !- Handle
  ASHRAE_189.1-2009_ExtWindow_ClimateZone 4-5, !- Name
  ,                                       !- Surface Rendering Name
  {73daad4f-6720-4ba8-a7f2-844f306239b1}; !- Layer 1

OS:Construction,
  {82599f42-cd4b-4ae7-ac8d-b7623eb7a5ed}, !- Handle
  000_Exterior Door,                      !- Name
  ,                                       !- Surface Rendering Name
  {ab1e6242-c0ff-4f50-918a-3f5c5f39494e}, !- Layer 1
  {6f5af952-290e-4464-a57a-a8012a428b5d}; !- Layer 2

OS:Construction,
  {8e42203a-ad13-4a55-a3f6-4fcc428d9f99}, !- Handle
  000_Exterior Window,                    !- Name
  ,                                       !- Surface Rendering Name
  {f1a1da3f-095a-4db3-86b5-3e794f6003fb}, !- Layer 1
  {b9b56337-d078-4dfb-85e8-3eb65ffe50e8}, !- Layer 2
  {f1a1da3f-095a-4db3-86b5-3e794f6003fb}; !- Layer 3

OS:Construction,
  {6dce13d4-d499-4032-a037-ecb6d69badf0}, !- Handle
  000_Interior Window,                    !- Name
  ,                                       !- Surface Rendering Name
  {f1a1da3f-095a-4db3-86b5-3e794f6003fb}; !- Layer 1

OS:Construction,
  {bb21731a-3ca0-4043-a946-77ab850da64f}, !- Handle
  000_Interior Door,                      !- Name
  ,                                       !- Surface Rendering Name
  {79d040aa-3d11-45f8-b1d0-105e53750959}; !- Layer 1

OS:Material,
  {79d040aa-3d11-45f8-b1d0-105e53750959}, !- Handle
  000_G05 25mm wood,                      !- Name
  MediumSmooth,                           !- Roughness
  0.025399999999999999,                   !- Thickness {m}
  0.14999999999999999,                    !- Conductivity {W/m-K}
  608,                                    !- Density {kg/m3}
  1630;                                   !- Specific Heat {J/kg-K}

OS:Material,
  {2d9c6455-9e35-406d-9fe0-1b5c2ff60877}, !- Handle
  MAT-CC05 4 HW CONCRETE,                 !- Name
  Rough,                                  !- Roughness
  0.1016,                                 !- Thickness {m}
  1.3109999999999999,                     !- Conductivity {W/m-K}
  2240,                                   !- Density {kg/m3}
  836.8,                                  !- Specific Heat {J/kg-K}
  0.90000000000000002,                    !- Thermal Absorptance
  0.69999999999999996,                    !- Solar Absorptance
  0.69999999999999996;                    !- Visible Absorptance

OS:Material:NoMass,
  {4e5461c0-1e36-43c1-890d-d2dde4f5e972}, !- Handle
  CP02 CARPET PAD,                        !- Name
  VeryRough,                              !- Roughness
  0.2165,                                 !- Thermal Resistance {m2-K/W}
  0.90000000000000002,                    !- Thermal Absorptance
  0.69999999999999996,                    !- Solar Absorptance
  0.80000000000000004;                    !- Visible Absorptance

OS:Material:NoMass,
  {345cb5b3-adcd-4d02-a3eb-41eec917f7e5}, !- Handle
  MAT-SHEATH,                             !- Name
  Rough,                                  !- Roughness
  0.36259999999999998,                    !- Thermal Resistance {m2-K/W}
  0.90000000000000002,                    !- Thermal Absorptance
  0.69999999999999996,                    !- Solar Absorptance
  0.69999999999999996;                    !- Visible Absorptance

OS:Material,
  {0bc4bddc-d4e9-4cd5-b12b-8f350e983551}, !- Handle
  Wall Insulation [39],                   !- Name
  MediumRough,                            !- Roughness
  0.11840000000000001,                    !- Thickness {m}
  0.044999999999999998,                   !- Conductivity {W/m-K}
  265,                                    !- Density {kg/m3}
  836.8,                                  !- Specific Heat {J/kg-K}
  0.90000000000000002,                    !- Thermal Absorptance
  0.69999999999999996,                    !- Solar Absorptance
  0.69999999999999996;                    !- Visible Absorptance

OS:Material,
  {a02cc56e-6960-4d9d-968d-7e0e7cab056d}, !- Handle
  1/2IN Gypsum,                           !- Name
  Smooth,                                 !- Roughness
  0.012699999999999999,                   !- Thickness {m}
  0.16,                                   !- Conductivity {W/m-K}
  784.89999999999998,                     !- Density {kg/m3}
  830,                                    !- Specific Heat {J/kg-K}
  0.90000000000000002,                    !- Thermal Absorptance
  0.92000000000000004,                    !- Solar Absorptance
  0.92000000000000004;                    !- Visible Absorptance

OS:Material,
  {8ec0a552-4237-419c-be76-9d7ecc4a321b}, !- Handle
  Roof Membrane,                          !- Name
  VeryRough,                              !- Roughness
  0.0094999999999999998,                  !- Thickness {m}
  0.16,                                   !- Conductivity {W/m-K}
  1121.29,                                !- Density {kg/m3}
  1460,                                   !- Specific Heat {J/kg-K}
  0.90000000000000002,                    !- Thermal Absorptance
  0.69999999999999996,                    !- Solar Absorptance
  0.69999999999999996;                    !- Visible Absorptance

OS:Material,
  {d1ff4811-fdd1-4cf1-b925-91db858debac}, !- Handle
  Roof Insulation [21],                   !- Name
  MediumRough,                            !- Roughness
  0.21049999999999999,                    !- Thickness {m}
  0.049000000000000002,                   !- Conductivity {W/m-K}
  265,                                    !- Density {kg/m3}
  836.8,                                  !- Specific Heat {J/kg-K}
  0.90000000000000002,                    !- Thermal Absorptance
  0.69999999999999996,                    !- Solar Absorptance
  0.69999999999999996;                    !- Visible Absorptance

OS:Material,
  {6327926c-9cef-40c6-bea4-12a54832199d}, !- Handle
  Metal Decking,                          !- Name
  MediumSmooth,                           !- Roughness