
OS:Version,
  {33079bf4-f264-41b0-8188-1c43116c885b}, !- Handle
  3.2.0;                                  !- Version Identifier

OS:BuildingStory,
  {47759646-8c71-4155-9370-557f75cd4fef}, !- Handle
  Story 1,                                !- Name
  0,                                      !- Nominal Z Coordinate {m}
  4,                                      !- Nominal Floor to Floor Height {m}
  ,                                       !- Default Construction Set Name
  ,                                       !- Default Schedule Set Name
  ;                                       !- Group Rendering Name

OS:Space,
  {f28d3be5-7c22-4b47-9b7b-c17e4dd0a64b}, !- Handle
  Story 1 Core Space,                     !- Name
  ,                                       !- Space Type Name
  ,                                       !- Default Construction Set Name
  ,                                       !- Default Schedule Set Name
  -0,                                     !- Direction of Relative North {deg}
  0,                                      !- X Origin {m}
  0,                                      !- Y Origin {m}
  0,                                      !- Z Origin {m}
  {47759646-8c71-4155-9370-557f75cd4fef}, !- Building Story Name
  {7049de03-fbf9-4561-8591-74156c892ac6}; !- Thermal Zone Name

OS:Surface,
  {e0ff551a-e7f0-457d-9203-d70e2a14365b}, !- Handle
  Surface 1,                              !- Name
  Floor,                                  !- Surface Type
  ,                                       !- Construction Name
  {f28d3be5-7c22-4b47-9b7b-c17e4dd0a64b}, !- Space Name
  Ground,                                 !- Outside Boundary Condition
  ,                                       !- Outside Boundary Condition Object
  NoSun,                                  !- Sun Exposure
  NoWind,                                 !- Wind Exposure
  ,                                       !- View Factor to Ground
  ,                                       !- Number of Vertices
  0, 0, 0,                                !- X,Y,Z Vertex 1 {m}
  0, 50, 0,                               !- X,Y,Z Vertex 2 {m}
  100, 50, 0,                             !- X,Y,Z Vertex 3 {m}
  100, 0, 0;                              !- X,Y,Z Vertex 4 {m}

OS:Surface,
  {84a5bbce-423f-4131-bc84-d881e489f38d}, !- Handle
  Surface 2,                              !- Name
  Wall,                                   !- Surface Type
  ,                                       !- Construction Name
  {f28d3be5-7c22-4b47-9b7b-c17e4dd0a64b}, !- Space Name
  Outdoors,                               !- Outside Boundary Condition
  ,                                       !- Outside Boundary Condition Object
  SunExposed,                             !- Sun Exposure
  WindExposed,                            !- Wind Exposure
  ,                                       !- View Factor to Ground
  ,                                       !- Number of Vertices
  0, 50, 4,                               !- X,Y,Z Vertex 1 {m}
  0, 50, 0,                               !- X,Y,Z Vertex 2 {m}
  0, 0, 0,                                !- X,Y,Z Vertex 3 {m}
  0, 0, 4;                                !- X,Y,Z Vertex 4 {m}

OS:Surface,
  {caae9ed1-cfe8-4a76-9bc0-360fc8a769e7}, !- Handle
  Surface 3,                              !- Name
  Wall,                                   !- Surface Type
  ,                                       !- Construction Name
  {f28d3be5-7c22-4b47-9b7b-c17e4dd0a64b}, !- Space Name
  Outdoors,                               !- Outside Boundary Condition
  ,                                       !- Outside Boundary Condition Object
  SunExposed,                             !- Sun Exposure
  WindExposed,                            !- Wind Exposure
  ,                                       !- View Factor to Ground
  ,                                       !- Number of Vertices
  100, 50, 4,                             !- X,Y,Z Vertex 1 {m}
  100, 50, 0,                             !- X,Y,Z Vertex 2 {m}
  0, 50, 0,                               !- X,Y,Z Vertex 3 {m}
  0, 50, 4;                               !- X,Y,Z Vertex 4 {m}

OS:Surface,
  {f6f6383b-e71d-4831-9873-2161e23c681c}, !- Handle
  Surface 4,                              !- Name
  Wall,                                   !- Surface Type
  ,                                       !- Construction Name
  {f28d3be5-7c22-4b47-9b7b-c17e4dd0a64b}, !- Space Name
  Outdoors,                               !- Outside Boundary Condition
  ,                                       !- Outside Boundary Condition Object
  SunExposed,                             !- Sun Exposure
  WindExposed,                            !- Wind Exposure
  ,                                       !- View Factor to Ground
  ,                                       !- Number of Vertices
  100, 0, 4,                              !- X,Y,Z Vertex 1 {m}
  100, 0, 0,                              !- X,Y,Z Vertex 2 {m}
  100, 50, 0,                             !- X,Y,Z Vertex 3 {m}
  100, 50, 4;                             !- X,Y,Z Vertex 4 {m}

OS:Surface,
  {5704b79b-01e7-403f-ae6f-a5da6a1c7be4}, !- Handle
  Surface 5,                              !- Name
  Wall,                                   !- Surface Type
  ,                                       !- Construction Name
  {f28d3be5-7c22-4b47-9b7b-c17e4dd0a64b}, !- Space Name
  Outdoors,                               !- Outside Boundary Condition
  ,                                       !- Outside Boundary Condition Object
  SunExposed,                             !- Sun Exposure
  WindExposed,                            !- Wind Exposure
  ,                                       !- View Factor to Ground
  ,                                       !- Number of Vertices
  0, 0, 4,                                !- X,Y,Z Vertex 1 {m}
  0, 0, 0,                                !- X,Y,Z Vertex 2 {m}
  100, 0, 0,                              !- X,Y,Z Vertex 3 {m}
  100, 0, 4;                              !- X,Y,Z Vertex 4 {m}

OS:Surface,
  {a27b489d-b699-4d3f-a5df-a3a23cc007a3}, !- Handle
  Surface 6,                              !- Name
  RoofCeiling,                            !- Surface Type
  ,                                       !- Construction Name
  {f28d3be5-7c22-4b47-9b7b-c17e4dd0a64b}, !- Space Name
  Outdoors,                               !- Outside Boundary Condition
  ,                                       !- Outside Boundary Condition Object
  SunExposed,                             !- Sun Exposure
  WindExposed,                            !- Wind Exposure
  ,                                       !- View Factor to Ground
  ,                                       !- Number of Vertices
  100, 0, 4,                              !- X,Y,Z Vertex 1 {m}
  100, 50, 4,                             !- X,Y,Z Vertex 2 {m}
  0, 50, 4,                               !- X,Y,Z Vertex 3 {m}
  0, 0, 4;                                !- X,Y,Z Vertex 4 {m}

OS:ThermalZone,
  {7049de03-fbf9-4561-8591-74156c892ac6}, !- Handle
  Story 1 Core Thermal Zone,              !- Name
  ,                                       !- Multiplier
  ,                                       !- Ceiling Height {m}
  ,                                       !- Volume {m3}
  ,                                       !- Floor Area {m2}
  ,                                       !- Zone Inside Convection Algorithm
  ,                                       !- Zone Outside Convection Algorithm
  ,                                       !- Zone Conditioning Equipment List Name
  {f77f9b41-9250-478c-b0b0-cb339dee17b7}, !- Zone Air Inlet Port List
  {b9afb44a-5cbc-4f8d-92ba-134654dd0f78}, !- Zone Air Exhaust Port List
  {92438ff8-3df1-4030-b6c2-09acf6e86de5}, !- Zone Air Node Name
  {27640932-c5c9-4682-af8a-ace29f45270f}, !- Zone Return Air Port List
  ,                                       !- Primary Daylighting Control Name
  ,                                       !- Fraction of Zone Controlled by Primary Daylighting Control
  ,                                       !- Secondary Daylighting Control Name
  ,                                       !- Fraction of Zone Controlled by Secondary Daylighting Control
  ,                                       !- Illuminance Map Name
  ,                                       !- Group Rendering Name
  {b210d146-cdc6-401a-a192-d0936b4c65a2}, !- Thermostat Name
  No;                                     !- Use Ideal Air Loads

OS:Node,
  {d6987cf7-d3f0-4abd-8f56-dab38f078d70}, !- Handle
  Node 1,                                 !- Name
  {92438ff8-3df1-4030-b6c2-09acf6e86de5}, !- Inlet Port
  ;                                       !- Outlet Port

OS:Connection,
  {92438ff8-3df1-4030-b6c2-09acf6e86de5}, !- Handle
  {7049de03-fbf9-4561-8591-74156c892ac6}, !- Source Object
  11,                                     !- Outlet Port
  {d6987cf7-d3f0-4abd-8f56-dab38f078d70}, !- Target Object
  2;                                      !- Inlet Port

OS:PortList,
  {f77f9b41-9250-478c-b0b0-cb339dee17b7}, !- Handle
  {7049de03-fbf9-4561-8591-74156c892ac6}, !- HVAC Component
  {de9393dd-3dbd-45b9-bee2-42ef80f57145}; !- Port 1

OS:PortList,
  {b9afb44a-5cbc-4f8d-92ba-134654dd0f78}, !- Handle
  {7049de03-fbf9-4561-8591-74156c892ac6}; !- HVAC Component

OS:PortList,
  {27640932-c5c9-4682-af8a-ace29f45270f}, !- Handle
  {7049de03-fbf9-4561-8591-74156c892ac6}, !- HVAC Component
  {f79f6597-cf06-44a9-9ed9-012f8a2d59f5}; !- Port 1

OS:Sizing:Zone,
  {42f796aa-e796-4352-b0ed-269e3519a1c5}, !- Handle
  {7049de03-fbf9-4561-8591-74156c892ac6}, !- Zone or ZoneList Name
  SupplyAirTemperature,                   !- Zone Cooling Design Supply Air Temperature Input Method
  14,                                     !- Zone Cooling Design Supply Air Temperature {C}
  11.11,                                  !- Zone Cooling Design Supply Air Temperature Difference {deltaC}
  SupplyAirTemperature,                   !- Zone Heating Design Supply Air Temperature Input Method
  40,                                     !- Zone Heating Design Supply Air Temperature {C}
  11.11,                                  !- Zone Heating Design Supply Air Temperature Difference {deltaC}
  0.0085,                                 !- Zone Cooling Design Supply Air Humidity Ratio {kg-H2O/kg-air}
  0.008,                                  !- Zone Heating Design Supply Air Humidity Ratio {kg-H2O/kg-air}
  ,                                       !- Zone Heating Sizing Factor
  ,                                       !- Zone Cooling Sizing Factor
  DesignDay,                              !- Cooling Design Air Flow Method
  ,                                       !- Cooling Design Air Flow Rate {m3/s}
  ,                                       !- Cooling Minimum Air Flow per Zone Floor Area {m3/s-m2}
  ,                                       !- Cooling Minimum Air Flow {m3/s}
  ,                                       !- Cooling Minimum Air Flow Fraction
  DesignDay,                              !- Heating Design Air Flow Method
  ,                                       !- Heating Design Air Flow Rate {m3/s}
  ,                                       !- Heating Maximum Air Flow per Zone Floor Area {m3/s-m2}
  ,                                       !- Heating Maximum Air Flow {m3/s}
  ,                                       !- Heating Maximum Air Flow Fraction
  No,                                     !- Account for Dedicated Outdoor Air System
  NeutralSupplyAir,                       !- Dedicated Outdoor Air System Control Strategy
  autosize,                               !- Dedicated Outdoor Air Low Setpoint Temperature for Design {C}
  autosize;                               !- Dedicated Outdoor Air High Setpoint Temperature for Design {C}

OS:ZoneHVAC:EquipmentList,
  {a47315f4-fa56-4eb2-b9b6-65c5c9fbca38}, !- Handle
  Zone HVAC Equipment List 1,             !- Name
  {7049de03-fbf9-4561-8591-74156c892ac6}, !- Thermal Zone
  ,                                       !- Load Distribution Scheme
  {7225ab3e-1ccb-4bcf-be92-a11a48b5947d}, !- Zone Equipment 1
  1,                                      !- Zone Equipment Cooling Sequence 1
  1,                                      !- Zone Equipment Heating or No-Load Sequence 1
  ,                                       !- Zone Equipment Sequential Cooling Fraction Schedule Name 1
  ;                                       !- Zone Equipment Sequential Heating Fraction Schedule Name 1

OS:SubSurface,
  {abcfa691-219c-4326-a26c-9b3b18432337}, !- Handle
  Sub Surface 1,                          !- Name
  FixedWindow,                            !- Sub Surface Type
  ,                                       !- Construction Name
  {5704b79b-01e7-403f-ae6f-a5da6a1c7be4}, !- Surface Name
  ,                                       !- Outside Boundary Condition Object
  ,                                       !- View Factor to Ground
  ,                                       !- Frame and Divider Name
  ,                                       !- Multiplier
  ,                                       !- Number of Vertices
  0.0254, 0, 2.60081321311226,            !- X,Y,Z Vertex 1 {m}
  0.0254, 0, 1,                           !- X,Y,Z Vertex 2 {m}
  99.9746, 0, 1,                          !- X,Y,Z Vertex 3 {m}
  99.9746, 0, 2.60081321311226;           !- X,Y,Z Vertex 4 {m}

OS:SubSurface,
  {de55433f-5747-49df-a4df-e772f18aeab7}, !- Handle
  Sub Surface 2,                          !- Name
  FixedWindow,                            !- Sub Surface Type
  ,                                       !- Construction Name
  {f6f6383b-e71d-4831-9873-2161e23c681c}, !- Surface Name
  ,                                       !- Outside Boundary Condition Object
  ,                                       !- View Factor to Ground
  ,                                       !- Frame and Divider Name
  ,                                       !- Multiplier
  ,                                       !- Number of Vertices
  100, 0.0254, 2.60162725328934,          !- X,Y,Z Vertex 1 {m}
  100, 0.0254, 1,                         !- X,Y,Z Vertex 2 {m}
  100, 49.9746, 1,                        !- X,Y,Z Vertex 3 {m}
  100, 49.9746, 2.60162725328934;         !- X,Y,Z Vertex 4 {m}

OS:SubSurface,
  {5ea62187-771b-4c74-8cdc-3eeef828c920}, !- Handle
  Sub Surface 3,                          !- Name
  FixedWindow,                            !- Sub Surface Type
  ,                                       !- Construction Name
  {caae9ed1-cfe8-4a76-9bc0-360fc8a769e7}, !- Surface Name
  ,                                       !- Outside Boundary Condition Object
  ,                                       !- View Factor to Ground
  ,                                       !- Frame and Divider Name
  ,                                       !- Multiplier
  ,                                       !- Number of Vertices
  99.9746, 50, 2.60081321311226,          !- X,Y,Z Vertex 1 {m}
  99.9746, 50, 1,                         !- X,Y,Z Vertex 2 {m}
  0.0253999999999905, 50, 1,              !- X,Y,Z Vertex 3 {m}
  0.0253999999999905, 50, 2.60081321311226; !- X,Y,Z Vertex 4 {m}

OS:SubSurface,
  {62809848-4718-4d7b-83cd-4d7912bfae81}, !- Handle
  Sub Surface 4,                          !- Name
  FixedWindow,                            !- Sub Surface Type
  ,                                       !- Construction Name
  {84a5bbce-423f-4131-bc84-d881e489f38d}, !- Surface Name
  ,                                       !- Outside Boundary Condition Object
  ,                                       !- View Factor to Ground
  ,                                       !- Frame and Divider Name
  ,                                       !- Multiplier
  ,                                       !- Number of Vertices
  0, 49.9746, 2.60162725328934,           !- X,Y,Z Vertex 1 {m}
  0, 49.9746, 1,                          !- X,Y,Z Vertex 2 {m}
  0, 0.0254000000000048, 1,               !- X,Y,Z Vertex 3 {m}
  0, 0.0254000000000048, 2.60162725328934; !- X,Y,Z Vertex 4 {m}

OS:DefaultConstructionSet,
  {2efdf950-9069-430c-99ad-8e03c0cb8978}, !- Handle
  ASHRAE_189.1-2009_ClimateZone 4-5 (mdoff)_ConstSet, !- Name
  {cdbafe69-8fbc-48cc-9f26-a6083ab5cde1}, !- Default Exterior Surface Constructions Name
  {5952f5c0-98fa-41cd-9f9f-cc3e805b3ebb}, !- Default Interior Surface Constructions Name
  {9260e751-890c-4278-9d82-bdaf770c3abd}, !- Default Ground Contact Surface Constructions Name
  {dd2420ab-25af-4c59-ae24-c9dc560bf401}, !- Default Exterior SubSurface Constructions Name
  {363c2774-3916-45b9-baa6-7363317ed4fc}, !- Default Interior SubSurface Constructions Name
  {08c9f26d-f5ca-45c9-ae6b-8e4a42303aed}, !- Interior Partition Construction Name
  ,                                       !- Space Shading Construction Name
  ,                                       !- Building Shading Construction Name
  ,                                       !- Site Shading Construction Name
  ;                                       !- Adiabatic Surface Construction Name

OS:DefaultSurfaceConstructions,
  {cdbafe69-8fbc-48cc-9f26-a6083ab5cde1}, !- Handle
  ASHRAE_189.1-2009_ClimateZone 4-5 (mdoff)_Exterior_DefSurfCons, !- Name
  {f46438d9-2db5-40c5-9b82-72e13e66f08a}, !- Floor Construction Name
  {99fb99e8-6875-4b5c-a979-0bb4860081f9}, !- Wall Construction Name
  {cf314e5b-7db1-4eb7-a059-b28e86355814}; !- Roof Ceiling Construction Name

OS:DefaultSurfaceConstructions,
  {5952f5c0-98fa-41cd-9f9f-cc3e805b3ebb}, !- Handle
  000_Interior_DefSurfCons,               !- Name
  {79b6ee9b-62a6-4abe-bdec-772d4ef139ee}, !- Floor Construction Name
  {181224a0-d98d-43b4-ae1f-4ac0c4a0a6ab}, !- Wall Construction Name
  {a5f8e4c5-a48f-48e6-ad92-afa4ae87020c}; !- Roof Ceiling Construction Name

OS:DefaultSurfaceConstructions,
  {9260e751-890c-4278-9d82-bdaf770c3abd}, !- Handle
  000_Ground_DefSurfCons,                 !- Name
  {f46438d9-2db5-40c5-9b82-72e13e66f08a}, !- Floor Construction Name
  {f46438d9-2db5-40c5-9b82-72e13e66f08a}, !- Wall Construction Name
  {f46438d9-2db5-40c5-9b82-72e13e66f08a}; !- Roof Ceiling Construction Name

OS:DefaultSubSurfaceConstructions,
  {dd2420ab-25af-4c59-ae24-c9dc560bf401}, !- Handle
  ASHRAE_189.1-2009_ClimateZone 4-5 (mdoff)_Exterior_DefSubCons, !- Name
  {d112c909-e052-4bc0-ba61-f2bc869020da}, !- Fixed Window Construction Name
  {d112c909-e052-4bc0-ba61-f2bc869020da}, !- Operable Window Construction Name
  {d4a32c6e-21c7-46e8-a680-30a3b783d9b8}, !- Door Construction Name
  {17bd0332-e4e3-46ed-95a5-2c63732a5176}, !- Glass Door Construction Name
  ,                                       !- Overhead Door Construction Name
  {17bd0332-e4e3-46ed-95a5-2c63732a5176}, !- Skylight Construction Name
  {efc2aded-c542-4e1c-9cb5-4dcd4c4a08f1}, !- Tubular Daylight Dome Construction Name
  {efc2aded-c542-4e1c-9cb5-4dcd4c4a08f1}; !- Tubular Daylight Diffuser Construction Name

OS:DefaultSubSurfaceConstructions,
  {363c2774-3916-45b9-baa6-7363317ed4fc}, !- Handle
  000_Interior_DefSubCons,                !- Name
  {efc2aded-c542-4e1c-9cb5-4dcd4c4a08f1}, !- Fixed Window Construction Name
  {efc2aded-c542-4e1c-9cb5-4dcd4c4a08f1}, !- Operable Window Construction Name
  {2db70c20-4513-4aab-b448-d220b665f5ec}, !- Door Construction Name
  {17bd0332-e4e3-46ed-95a5-2c63732a5176}, !- Glass Door Construction Name
  ,                                       !- Overhead Door Construction Name
  {17bd0332-e4e3-46ed-95a5-2c63732a5176}, !- Skylight Construction Name
  {efc2aded-c542-4e1c-9cb5-4dcd4c4a08f1}, !- Tubular Daylight Dome Construction Name
  {efc2aded-c542-4e1c-9cb5-4dcd4c4a08f1}; !- Tubular Daylight Diffuser Construction Name

OS:Construction,
  {08c9f26d-f5ca-45c9-ae6b-8e4a42303aed}, !- Handle
  000_Interior Partition,                 !- Name
  ,                                       !- Surface Rendering Name
  {c3fdd27d-bba6-4548-bb68-bc7f83670287}; !- Layer 1

OS:Construction,
  {f46438d9-2db5-40c5-9b82-72e13e66f08a}, !- Handle
  000_ExtSlabCarpet_4in_ClimateZone 1-8,  !- Name
  ,                                       !- Surface Rendering Name
  {37bd6661-e8b6-466a-a757-b70e9af0179c}, !- Layer 1
  {06e38994-9623-4276-b861-9a5f7b1b18ae}; !- Layer 2

OS:Construction,
  {99fb99e8-6875-4b5c-a979-0bb4860081f9}, !- Handle
  ASHRAE_189.1-2009_ExtWall_SteelFrame_ClimateZone 4-8, !- Name
  ,                                       !- Surface Rendering Name
  {41a28b62-c067-4f5a-acb4-402c07c4ff17}, !- Layer 1
  {96890da8-2c91-49b5-800d-34e077c5443d}, !- Layer 2
  {2702c821-60bf-4c3d-9d05-079652f8f02a}; !- Layer 3

OS:Construction,
  {cf314e5b-7db1-4eb7-a059-b28e86355814}, !- Handle
  ASHRAE_189.1-2009_ExtRoof_IEAD_ClimateZone 2-5, !- Name
  ,                                       !- Surface Rendering Name
  {c3eae299-f08a-44a3-b602-8016a7f84c69}, !- Layer 1
  {75b095b9-d3d7-4fb5-bd5f-d62b6ce12e96}, !- Layer 2
  {a0e86160-18ed-4679-a3fa-fc36d6e4aeaf}; !- Layer 3

OS:Construction,
  {79b6ee9b-62a6-4abe-bdec-772d4ef139ee}, !- Handle
  000_Interior Floor,                     !- Name
  ,                                       !- Surface Rendering Name
  {80dce4bc-97fa-43fe-87d3-30b7380dfc59}, !- Layer 1
  {6b2497ba-c5c2-42ad-a173-b1ded593ef3f}, !- Layer 2
  {a8d3e77f-3e77-44d3-9124-ab58aea7a4a5}; !- Layer 3

OS:Construction,
  {181224a0-d98d-43b4-ae1f-4ac0c4a0a6ab}, !- Handle
  000_Interior Wall,                      !- Name
  ,                                       !- Surface Rendering Name
  {472563b3-f2e8-4e2e-a917-d33e96c298c2}, !- Layer 1
  {cd0a8f38-8e0d-4509-82b9-954259222698}, !- Layer 2
  {472563b3-f2e8-4e2e-a917-d33e96c298c2}; !- Layer 3

OS:Construction,
  {a5f8e4c5-a48f-48e6-ad92-afa4ae87020c}, !- Handle
  000_Interior Ceiling,                   !- Name
  ,                                       !- Surface Rendering Name
  {a8d3e77f-3e77-44d3-9124-ab58aea7a4a5}, !- Layer 1
  {6b2497ba-c5c2-42ad-a173-b1ded593ef3f}, !- Layer 2
  {80dce4bc-97fa-43fe-87d3-30b7380dfc59}; !- Layer 3

OS:Construction,
  {d112c909-e052-4bc0-ba61-f2bc869020da}, !- Handle
  ASHRAE_189.1-2009_ExtWindow_ClimateZone 4-5, !- Name
  ,                                       !- Surface Rendering Name
  {1f15a98a-9287-4ae0-a32a-641e8893005c}; !- Layer 1

OS:Construction,
  {d4a32c6e-21c7-46e8-a680-30a3b783d9b8}, !- Handle
  000_Exterior Door,                      !- Name
  ,                                       !- Surface Rendering Name
  {434c4a8f-9853-4246-884f-496993a07517}, !- Layer 1
  {b7264709-66bc-468b-bddb-bb2c6ff1839a}; !- Layer 2

OS:Construction,
  {17bd0332-e4e3-46ed-95a5-2c63732a5176}, !- Handle
  000_Exterior Window,                    !- Name
  ,                                       !- Surface Rendering Name
  {7f990645-2bf3-40f3-8d0c-1b4a7eb69ff8}, !- Layer 1
  {5f3dd89d-1de5-4833-8c94-35d053a1ccf0}, !- Layer 2
  {7f990645-2bf3-40f3-8d0c-1b4a7eb69ff8}; !- Layer 3

OS:Construction,
  {efc2aded-c542-4e1c-9cb5-4dcd4c4a08f1}, !- Handle
  000_Interior Window,                    !- Name
  ,                                       !- Surface Rendering Name
  {7f990645-2bf3-40f3-8d0c-1b4a7eb69ff8}; !- Layer 1

OS:Construction,
  {2db70c20-4513-4aab-b448-d220b665f5ec}, !- Handle
  000_Interior Door,                      !- Name
  ,                                       !- Surface Rendering Name
  {c3fdd27d-bba6-4548-bb68-bc7f83670287}; !- Layer 1

OS:Material,
  {c3fdd27d-bba6-4548-bb68-bc7f83670287}, !- Handle
  000_G05 25mm wood,                      !- Name
  MediumSmooth,                           !- Roughness
  0.025399999999999999,                   !- Thickness {m}
  0.14999999999999999,                    !- Conductivity {W/m-K}
  608,                                    !- Density {kg/m3}
  1630;                                   !- Specific Heat {J/kg-K}

OS:Material,
  {37bd6661-e8b6-466a-a757-b70e9af0179c}, !- Handle
  MAT-CC05 4 HW CONCRETE,                 !- Name
  Rough,                                  !- Roughness
  0.1016,                                 !- Thickness {m}
  1.3109999999999999,                     !- Conductivity {W/m-K}
  2240,                                   !- Density {kg/m3}
  836.8,                                  !- Specific Heat {J/kg-K}
  0.90000000000000002,                    !- Thermal Absorptance
  0.69999999999999996,                    !- Solar Absorptance
  0.69999999999999996;                    !- Visible Absorptance

OS:Material:NoMass,
  {06e38994-9623-4276-b861-9a5f7b1b18ae}, !- Handle
  CP02 CARPET PAD,                        !- Name
  VeryRough,                              !- Roughness
  0.2165,                                 !- Thermal Resistance
  0.90000000000000002,                    !- Thermal Absorptance
  0.69999999999999996,                    !- Solar Absorptance
  0.80000000000000004;                    !- Visible Absorptance

OS:Material:NoMass,
  {41a28b62-c067-4f5a-acb4-402c07c4ff17}, !- Handle
  MAT-SHEATH,                             !- Name
  Rough,                                  !- Roughness
  0.36259999999999998,                    !- Thermal Resistance
  0.90000000000000002,                    !- Thermal Absorptance
  0.69999999999999996,                    !- Solar Absorptance
  0.69999999999999996;                    !- Visible Absorptance

OS:Material,
  {96890da8-2c91-49b5-800d-34e077c5443d}, !- Handle
  Wall Insulation [39],                   !- Name
  MediumRough,                            !- Roughness
  0.11840000000000001,                    !- Thickness {m}
  0.044999999999999998,                   !- Conductivity {W/m-K}
  265,                                    !- Density {kg/m3}
  836.8,                                  !- Specific Heat {J/kg-K}
  0.90000000000000002,                    !- Thermal Absorptance
  0.69999999999999996,                    !- Solar Absorptance
  0.69999999999999996;                    !- Visible Absorptance

OS:Material,
  {2702c821-60bf-4c3d-9d05-079652f8f02a}, !- Handle
  1/2IN Gypsum,                           !- Name
  Smooth,                                 !- Roughness
  0.012699999999999999,                   !- Thickness {m}
  0.16,                                   !- Conductivity {W/m-K}
  784.89999999999998,                     !- Density {kg/m3}
  830,                                    !- Specific Heat {J/kg-K}
  0.90000000000000002,                    !- Thermal Absorptance
  0.92000000000000004,                    !- Solar Absorptance
  0.92000000000000004;                    !- Visible Absorptance

OS:Material,
  {c3eae299-f08a-44a3-b602-8016a7f84c69}, !- Handle
  Roof Membrane,                          !- Name
  VeryRough,                              !- Roughness
  0.0094999999999999998,                  !- Thickness {m}
  0.16,                                   !- Conductivity {W/m-K}
  1121.29,                                !- Density {kg/m3}
  1460,                                   !- Specific Heat {J/kg-K}
  0.90000000000000002,                    !- Thermal Absorptance
  0.69999999999999996,                    !- Solar Absorptance
  0.69999999999999996;                    !- Visible Absorptance

OS:Material,
  {75b095b9-d3d7-4fb5-bd5f-d62b6ce12e96}, !- Handle
  Roof Insulation [21],                   !- Name
  MediumRough,                            !- Roughness
  0.21049999999999999,                    !- Thickness {m}
  0.049000000000000002,                   !- Conductivity {W/m-K}
  265,                                    !- Density {kg/m3}
  836.8,                                  !- Specific Heat {J/kg-K}
  0.90000000000000002,                    !- Thermal Absorptance
  0.69999999999999996,                    !- Solar Absorptance
  0.69999999999999996;                    !- Visible Absorptance

OS:Material,
  {a0e86160-18ed-4679-a3fa-fc36d6e4aeaf}, !- Handle
  Metal Decking,                          !- Name
  MediumSmooth,                           !- Roughness
  0.0015,                                 !- Thickness {m}
  45.006,                                 !- Conductivity {W/m-K}
  7680,                                   !- Density {kg/m3}
  418.4,                                  !- Specific Heat {J/kg-K}
  0.90000000000000002,                    !- Thermal Absorptance
  0.69999999999999996,                    !- Solar Absorptance
  0.29999999999999999;                    !- Visible Absorptance

OS:Material,
  {80dce4bc-97fa-43fe-87d3-30b7380dfc59}, !- Handle
  000_F16 Acoustic tile,                  !- Name
  MediumSmooth,                           !- Roughness
  0.019099999999999999,                   !- Thickness {m}
  0.059999999999999998,                   !- Conductivity {W/m-K}
  368,                                    !- Density {kg/m3}
  590;                                    !- Specific Heat {J/kg-K}

OS:Material:AirGap,
  {6b2497ba-c5c2-42ad-a173-b1ded593ef3f}, !- Handle
  000_F05 Ceiling air space resistance,   !- Name
  0.17999999999999999;                    !- Thermal Resistance

OS:Material,
  {a8d3e77f-3e77-44d3-9124-ab58aea7a4a5}, !- Handle
  000_M11 100mm lightweight concrete,     !- Name
  MediumRough,                            !- Roughness
  0.1016,                                 !- Thickness {m}
  0.53000000000000003,                    !- Conductivity {W/m-K}
  1280,                                   !- Density {kg/m3}
  840;                                    !- Specific Heat {J/kg-K}

OS:Material,
  {472563b3-f2e8-4e2e-a917-d33e96c298c2}, !- Handle
  000_G01a 19mm gypsum board,             !- Name
  MediumSmooth,                           !- Roughness
  0.019,                                  !- Thickness {m}
  0.16,                                   !- Conductivity {W/m-K}
  800,                                    !- Density {kg/m3}
  1090;                                   !- Specific Heat {J/kg-K}

OS:Material:AirGap,
  {cd0a8f38-8e0d-4509-82b9-954259222698}, !- Handle
  000_F04 Wall air space resistance,      !- Name
  0.14999999999999999;                    !- Thermal Resistance
