
OS:Version,
  {30fe5b87-77f9-4eb1-a3aa-7098eb4a5ff8}, !- Handle
  2.0.5;                                  !- Version Identifier

OS:BuildingStory,
  {7a0a5853-3fe4-46e7-ba9e-638a8e9730ea}, !- Handle
  Story 1,                                !- Name
  0,                                      !- Nominal Z Coordinate {m}
  4,                                      !- Nominal Floor to Floor Height {m}
  ,                                       !- Default Construction Set Name
  ,                                       !- Default Schedule Set Name
  ;                                       !- Group Rendering Name

OS:Space,
  {d76c0dcc-79b2-4ed9-bce0-7da24ead5746}, !- Handle
  Story 1 West Perimeter Space,           !- Name
  ,                                       !- Space Type Name
  ,                                       !- Default Construction Set Name
  ,                                       !- Default Schedule Set Name
  -0,                                     !- Direction of Relative North {deg}
  0,                                      !- X Origin {m}
  0,                                      !- Y Origin {m}
  0,                                      !- Z Origin {m}
  {7a0a5853-3fe4-46e7-ba9e-638a8e9730ea}, !- Building Story Name
  {d06b0421-ba34-4525-b126-81cfc3e3ff58}; !- Thermal Zone Name

OS:Surface,
  {41fc0be4-f50c-4c89-94f3-3edc8bdec6c1}, !- Handle
  Surface 1,                              !- Name
  Floor,                                  !- Surface Type
  ,                                       !- Construction Name
  {d76c0dcc-79b2-4ed9-bce0-7da24ead5746}, !- Space Name
  Ground,                                 !- Outside Boundary Condition
  ,                                       !- Outside Boundary Condition Object
  NoSun,                                  !- Sun Exposure
  NoWind,                                 !- Wind Exposure
  ,                                       !- View Factor to Ground
  ,                                       !- Number of Vertices
  0, 0, 0,                                !- X,Y,Z Vertex 1 {m}
  0, 50, 0,                               !- X,Y,Z Vertex 2 {m}
  3, 47, 0,                               !- X,Y,Z Vertex 3 {m}
  3, 3, 0;                                !- X,Y,Z Vertex 4 {m}

OS:Surface,
  {1d1aade6-3fa9-4108-9224-10b7b931acbe}, !- Handle
  Surface 2,                              !- Name
  Wall,                                   !- Surface Type
  ,                                       !- Construction Name
  {d76c0dcc-79b2-4ed9-bce0-7da24ead5746}, !- Space Name
  Outdoors,                               !- Outside Boundary Condition
  ,                                       !- Outside Boundary Condition Object
  SunExposed,                             !- Sun Exposure
  WindExposed,                            !- Wind Exposure
  ,                                       !- View Factor to Ground
  ,                                       !- Number of Vertices
  0, 50, 4,                               !- X,Y,Z Vertex 1 {m}
  0, 50, 0,                               !- X,Y,Z Vertex 2 {m}
  0, 0, 0,                                !- X,Y,Z Vertex 3 {m}
  0, 0, 4;                                !- X,Y,Z Vertex 4 {m}

OS:Surface,
  {0466e80d-69ff-4347-a945-ad3a66a1fa04}, !- Handle
  Surface 3,                              !- Name
  Wall,                                   !- Surface Type
  ,                                       !- Construction Name
  {d76c0dcc-79b2-4ed9-bce0-7da24ead5746}, !- Space Name
  Surface,                                !- Outside Boundary Condition
  {f61c3509-caa9-43da-9aca-8569d12382a4}, !- Outside Boundary Condition Object
  NoSun,                                  !- Sun Exposure
  NoWind,                                 !- Wind Exposure
  ,                                       !- View Factor to Ground
  ,                                       !- Number of Vertices
  3, 47, 4,                               !- X,Y,Z Vertex 1 {m}
  3, 47, 0,                               !- X,Y,Z Vertex 2 {m}
  0, 50, 0,                               !- X,Y,Z Vertex 3 {m}
  0, 50, 4;                               !- X,Y,Z Vertex 4 {m}

OS:Surface,
  {f7e0fa98-c6a6-4148-b099-d0ddbd05c996}, !- Handle
  Surface 4,                              !- Name
  Wall,                                   !- Surface Type
  ,                                       !- Construction Name
  {d76c0dcc-79b2-4ed9-bce0-7da24ead5746}, !- Space Name
  Surface,                                !- Outside Boundary Condition
  {1c37f043-13f9-4940-b5df-20e76e6bbba5}, !- Outside Boundary Condition Object
  NoSun,                                  !- Sun Exposure
  NoWind,                                 !- Wind Exposure
  ,                                       !- View Factor to Ground
  ,                                       !- Number of Vertices
  3, 3, 4,                                !- X,Y,Z Vertex 1 {m}
  3, 3, 0,                                !- X,Y,Z Vertex 2 {m}
  3, 47, 0,                               !- X,Y,Z Vertex 3 {m}
  3, 47, 4;                               !- X,Y,Z Vertex 4 {m}

OS:Surface,
  {f160dbb3-a5e2-4d3f-a034-dae8b4e0cc55}, !- Handle
  Surface 5,                              !- Name
  Wall,                                   !- Surface Type
  ,                                       !- Construction Name
  {d76c0dcc-79b2-4ed9-bce0-7da24ead5746}, !- Space Name
  Surface,                                !- Outside Boundary Condition
  {94402125-0418-4531-a650-4671a306316f}, !- Outside Boundary Condition Object
  NoSun,                                  !- Sun Exposure
  NoWind,                                 !- Wind Exposure
  ,                                       !- View Factor to Ground
  ,                                       !- Number of Vertices
  0, 0, 4,                                !- X,Y,Z Vertex 1 {m}
  0, 0, 0,                                !- X,Y,Z Vertex 2 {m}
  3, 3, 0,                                !- X,Y,Z Vertex 3 {m}
  3, 3, 4;                                !- X,Y,Z Vertex 4 {m}

OS:Surface,
  {ea1f3fe3-ccdb-4123-99df-0bb09d35c265}, !- Handle
  Surface 6,                              !- Name
  RoofCeiling,                            !- Surface Type
  ,                                       !- Construction Name
  {d76c0dcc-79b2-4ed9-bce0-7da24ead5746}, !- Space Name
  Surface,                                !- Outside Boundary Condition
  {576cda75-4f38-4659-a5fa-3ce88236f28e}, !- Outside Boundary Condition Object
  NoSun,                                  !- Sun Exposure
  NoWind,                                 !- Wind Exposure
  ,                                       !- View Factor to Ground
  ,                                       !- Number of Vertices
  3, 3, 4,                                !- X,Y,Z Vertex 1 {m}
  3, 47, 4,                               !- X,Y,Z Vertex 2 {m}
  0, 50, 4,                               !- X,Y,Z Vertex 3 {m}
  0, 0, 4;                                !- X,Y,Z Vertex 4 {m}

OS:Space,
  {f30e964c-14d1-4940-b15a-09e2797c6ebb}, !- Handle
  Story 1 North Perimeter Space,          !- Name
  ,                                       !- Space Type Name
  ,                                       !- Default Construction Set Name
  ,                                       !- Default Schedule Set Name
  -0,                                     !- Direction of Relative North {deg}
  3,                                      !- X Origin {m}
  47,                                     !- Y Origin {m}
  0,                                      !- Z Origin {m}
  {7a0a5853-3fe4-46e7-ba9e-638a8e9730ea}, !- Building Story Name
  {c76c63a6-6fdc-4f07-a8f5-47be2685bd63}; !- Thermal Zone Name

OS:Surface,
  {53b910b8-0737-4f35-a3d3-45b45e32f9af}, !- Handle
  Surface 7,                              !- Name
  Floor,                                  !- Surface Type
  ,                                       !- Construction Name
  {f30e964c-14d1-4940-b15a-09e2797c6ebb}, !- Space Name
  Ground,                                 !- Outside Boundary Condition
  ,                                       !- Outside Boundary Condition Object
  NoSun,                                  !- Sun Exposure
  NoWind,                                 !- Wind Exposure
  ,                                       !- View Factor to Ground
  ,                                       !- Number of Vertices
  -3, 3, 0,                               !- X,Y,Z Vertex 1 {m}
  97, 3, 0,                               !- X,Y,Z Vertex 2 {m}
  94, 0, 0,                               !- X,Y,Z Vertex 3 {m}
  0, 0, 0;                                !- X,Y,Z Vertex 4 {m}

OS:Surface,
  {d5baf993-b0dc-4c05-ac78-d6f68b40cae1}, !- Handle
  Surface 8,                              !- Name
  Wall,                                   !- Surface Type
  ,                                       !- Construction Name
  {f30e964c-14d1-4940-b15a-09e2797c6ebb}, !- Space Name
  Outdoors,                               !- Outside Boundary Condition
  ,                                       !- Outside Boundary Condition Object
  SunExposed,                             !- Sun Exposure
  WindExposed,                            !- Wind Exposure
  ,                                       !- View Factor to Ground
  ,                                       !- Number of Vertices
  97, 3, 4,                               !- X,Y,Z Vertex 1 {m}
  97, 3, 0,                               !- X,Y,Z Vertex 2 {m}
  -3, 3, 0,                               !- X,Y,Z Vertex 3 {m}
  -3, 3, 4;                               !- X,Y,Z Vertex 4 {m}

OS:Surface,
  {b7b22fe5-b1f6-4947-91e0-707f5419f9f3}, !- Handle
  Surface 9,                              !- Name
  Wall,                                   !- Surface Type
  ,                                       !- Construction Name
  {f30e964c-14d1-4940-b15a-09e2797c6ebb}, !- Space Name
  Surface,                                !- Outside Boundary Condition
  {b6e016b5-d5b2-420c-9f80-39ab58e9e34b}, !- Outside Boundary Condition Object
  NoSun,                                  !- Sun Exposure
  NoWind,                                 !- Wind Exposure
  ,                                       !- View Factor to Ground
  ,                                       !- Number of Vertices
  94, 0, 4,                               !- X,Y,Z Vertex 1 {m}
  94, 0, 0,                               !- X,Y,Z Vertex 2 {m}
  97, 3, 0,                               !- X,Y,Z Vertex 3 {m}
  97, 3, 4;                               !- X,Y,Z Vertex 4 {m}

OS:Surface,
  {eb085be7-aa7d-403a-b25e-6606c19c5bc1}, !- Handle
  Surface 10,                             !- Name
  Wall,                                   !- Surface Type
  ,                                       !- Construction Name
  {f30e964c-14d1-4940-b15a-09e2797c6ebb}, !- Space Name
  Surface,                                !- Outside Boundary Condition
  {abdb293f-968e-4301-bf9f-a4d3d57c1f4b}, !- Outside Boundary Condition Object
  NoSun,                                  !- Sun Exposure
  NoWind,                                 !- Wind Exposure
  ,                                       !- View Factor to Ground
  ,                                       !- Number of Vertices
  0, 0, 4,                                !- X,Y,Z Vertex 1 {m}
  0, 0, 0,                                !- X,Y,Z Vertex 2 {m}
  94, 0, 0,                               !- X,Y,Z Vertex 3 {m}
  94, 0, 4;                               !- X,Y,Z Vertex 4 {m}

OS:Surface,
  {f61c3509-caa9-43da-9aca-8569d12382a4}, !- Handle
  Surface 11,                             !- Name
  Wall,                                   !- Surface Type
  ,                                       !- Construction Name
  {f30e964c-14d1-4940-b15a-09e2797c6ebb}, !- Space Name
  Surface,                                !- Outside Boundary Condition
  {0466e80d-69ff-4347-a945-ad3a66a1fa04}, !- Outside Boundary Condition Object
  NoSun,                                  !- Sun Exposure
  NoWind,                                 !- Wind Exposure
  ,                                       !- View Factor to Ground
  ,                                       !- Number of Vertices
  -3, 3, 4,                               !- X,Y,Z Vertex 1 {m}
  -3, 3, 0,                               !- X,Y,Z Vertex 2 {m}
  0, 0, 0,                                !- X,Y,Z Vertex 3 {m}
  0, 0, 4;                                !- X,Y,Z Vertex 4 {m}

OS:Surface,
  {d8ec67bf-b91b-46bc-b970-b1f13f908bda}, !- Handle
  Surface 12,                             !- Name
  RoofCeiling,                            !- Surface Type
  ,                                       !- Construction Name
  {f30e964c-14d1-4940-b15a-09e2797c6ebb}, !- Space Name
  Surface,                                !- Outside Boundary Condition
  {bb1c484b-452c-47d6-b1ab-f2f3488ef619}, !- Outside Boundary Condition Object
  NoSun,                                  !- Sun Exposure
  NoWind,                                 !- Wind Exposure
  ,                                       !- View Factor to Ground
  ,                                       !- Number of Vertices
  0, 0, 4,                                !- X,Y,Z Vertex 1 {m}
  94, 0, 4,                               !- X,Y,Z Vertex 2 {m}
  97, 3, 4,                               !- X,Y,Z Vertex 3 {m}
  -3, 3, 4;                               !- X,Y,Z Vertex 4 {m}

OS:Space,
  {24c5bb59-dc58-4913-9ebe-139c1bd9e253}, !- Handle
  Story 1 East Perimeter Space,           !- Name
  ,                                       !- Space Type Name
  ,                                       !- Default Construction Set Name
  ,                                       !- Default Schedule Set Name
  -0,                                     !- Direction of Relative North {deg}
  97,                                     !- X Origin {m}
  3,                                      !- Y Origin {m}
  0,                                      !- Z Origin {m}
  {7a0a5853-3fe4-46e7-ba9e-638a8e9730ea}, !- Building Story Name
  {90417d18-0f7d-484f-bece-ccad672e5c8b}; !- Thermal Zone Name

OS:Surface,
  {12b33b21-72e6-4278-ad93-555bde3c1729}, !- Handle
  Surface 13,                             !- Name
  Floor,                                  !- Surface Type
  ,                                       !- Construction Name
  {24c5bb59-dc58-4913-9ebe-139c1bd9e253}, !- Space Name
  Ground,                                 !- Outside Boundary Condition
  ,                                       !- Outside Boundary Condition Object
  NoSun,                                  !- Sun Exposure
  NoWind,                                 !- Wind Exposure
  ,                                       !- View Factor to Ground
  ,                                       !- Number of Vertices
  3, 47, 0,                               !- X,Y,Z Vertex 1 {m}
  3, -3, 0,                               !- X,Y,Z Vertex 2 {m}
  0, 0, 0,                                !- X,Y,Z Vertex 3 {m}
  0, 44, 0;                               !- X,Y,Z Vertex 4 {m}

OS:Surface,
  {c8f1418c-e055-4c55-91ea-f1cda03ffc2f}, !- Handle
  Surface 14,                             !- Name
  Wall,                                   !- Surface Type
  ,                                       !- Construction Name
  {24c5bb59-dc58-4913-9ebe-139c1bd9e253}, !- Space Name
  Outdoors,                               !- Outside Boundary Condition
  ,                                       !- Outside Boundary Condition Object
  SunExposed,                             !- Sun Exposure
  WindExposed,                            !- Wind Exposure
  ,                                       !- View Factor to Ground
  ,                                       !- Number of Vertices
  3, -3, 4,                               !- X,Y,Z Vertex 1 {m}
  3, -3, 0,                               !- X,Y,Z Vertex 2 {m}
  3, 47, 0,                               !- X,Y,Z Vertex 3 {m}
  3, 47, 4;                               !- X,Y,Z Vertex 4 {m}

OS:Surface,
  {3cc7000f-5410-48ce-93b3-04f6458330c5}, !- Handle
  Surface 15,                             !- Name
  Wall,                                   !- Surface Type
  ,                                       !- Construction Name
  {24c5bb59-dc58-4913-9ebe-139c1bd9e253}, !- Space Name
  Surface,                                !- Outside Boundary Condition
  {5f77a332-4b6b-41ca-8c9e-2bd8ac62ef4e}, !- Outside Boundary Condition Object
  NoSun,                                  !- Sun Exposure
  NoWind,                                 !- Wind Exposure
  ,                                       !- View Factor to Ground
  ,                                       !- Number of Vertices
  0, 0, 4,                                !- X,Y,Z Vertex 1 {m}
  0, 0, 0,                                !- X,Y,Z Vertex 2 {m}
  3, -3, 0,                               !- X,Y,Z Vertex 3 {m}
  3, -3, 4;                               !- X,Y,Z Vertex 4 {m}

OS:Surface,
  {8f474cd7-45ac-4a46-afcc-f75bcf522895}, !- Handle
  Surface 16,                             !- Name
  Wall,                                   !- Surface Type
  ,                                       !- Construction Name
  {24c5bb59-dc58-4913-9ebe-139c1bd9e253}, !- Space Name
  Surface,                                !- Outside Boundary Condition
  {5d0cc474-83aa-4d29-b539-c74c4c62075a}, !- Outside Boundary Condition Object
  NoSun,                                  !- Sun Exposure
  NoWind,                                 !- Wind Exposure
  ,                                       !- View Factor to Ground
  ,                                       !- Number of Vertices
  0, 44, 4,                               !- X,Y,Z Vertex 1 {m}
  0, 44, 0,                               !- X,Y,Z Vertex 2 {m}
  0, 0, 0,                                !- X,Y,Z Vertex 3 {m}
  0, 0, 4;                                !- X,Y,Z Vertex 4 {m}

OS:Surface,
  {b6e016b5-d5b2-420c-9f80-39ab58e9e34b}, !- Handle
  Surface 17,                             !- Name
  Wall,                                   !- Surface Type
  ,                                       !- Construction Name
  {24c5bb59-dc58-4913-9ebe-139c1bd9e253}, !- Space Name
  Surface,                                !- Outside Boundary Condition
  {b7b22fe5-b1f6-4947-91e0-707f5419f9f3}, !- Outside Boundary Condition Object
  NoSun,                                  !- Sun Exposure
  NoWind,                                 !- Wind Exposure
  ,                                       !- View Factor to Ground
  ,                                       !- Number of Vertices
  3, 47, 4,                               !- X,Y,Z Vertex 1 {m}
  3, 47, 0,                               !- X,Y,Z Vertex 2 {m}
  0, 44, 0,                               !- X,Y,Z Vertex 3 {m}
  0, 44, 4;                               !- X,Y,Z Vertex 4 {m}

OS:Surface,
  {da7da577-f6e9-46ef-acb6-ad38be24e446}, !- Handle
  Surface 18,                             !- Name
  RoofCeiling,                            !- Surface Type
  ,                                       !- Construction Name
  {24c5bb59-dc58-4913-9ebe-139c1bd9e253}, !- Space Name
  Surface,                                !- Outside Boundary Condition
  {58f81dca-b885-49b4-8941-7e29be2f83c9}, !- Outside Boundary Condition Object
  NoSun,                                  !- Sun Exposure
  NoWind,                                 !- Wind Exposure
  ,                                       !- View Factor to Ground
  ,                                       !- Number of Vertices
  0, 44, 4,                               !- X,Y,Z Vertex 1 {m}
  0, 0, 4,                                !- X,Y,Z Vertex 2 {m}
  3, -3, 4,                               !- X,Y,Z Vertex 3 {m}
  3, 47, 4;                               !- X,Y,Z Vertex 4 {m}

OS:Space,
  {6c8bcf90-5e67-4232-9d20-6972014d72ea}, !- Handle
  Story 1 South Perimeter Space,          !- Name
  ,                                       !- Space Type Name
  ,                                       !- Default Construction Set Name
  ,                                       !- Default Schedule Set Name
  -0,                                     !- Direction of Relative North {deg}
  0,                                      !- X Origin {m}
  0,                                      !- Y Origin {m}
  0,                                      !- Z Origin {m}
  {7a0a5853-3fe4-46e7-ba9e-638a8e9730ea}, !- Building Story Name
  {45456ebd-1915-4431-8928-fc410682d99e}; !- Thermal Zone Name

OS:Surface,
  {944c58f6-4655-4d46-a27a-4ad78288af35}, !- Handle
  Surface 19,                             !- Name
  Floor,                                  !- Surface Type
  ,                                       !- Construction Name
  {6c8bcf90-5e67-4232-9d20-6972014d72ea}, !- Space Name
  Ground,                                 !- Outside Boundary Condition
  ,                                       !- Outside Boundary Condition Object
  NoSun,                                  !- Sun Exposure
  NoWind,                                 !- Wind Exposure
  ,                                       !- View Factor to Ground
  ,                                       !- Number of Vertices
  100, 0, 0,                              !- X,Y,Z Vertex 1 {m}
  0, 0, 0,                                !- X,Y,Z Vertex 2 {m}
  3, 3, 0,                                !- X,Y,Z Vertex 3 {m}
  97, 3, 0;                               !- X,Y,Z Vertex 4 {m}

OS:Surface,
  {9812e2b5-03c8-496e-aedd-4ce7ded4ff51}, !- Handle
  Surface 20,                             !- Name
  Wall,                                   !- Surface Type
  ,                                       !- Construction Name
  {6c8bcf90-5e67-4232-9d20-6972014d72ea}, !- Space Name
  Outdoors,                               !- Outside Boundary Condition
  ,                                       !- Outside Boundary Condition Object
  SunExposed,                             !- Sun Exposure
  WindExposed,                            !- Wind Exposure
  ,                                       !- View Factor to Ground
  ,                                       !- Number of Vertices
  0, 0, 4,                                !- X,Y,Z Vertex 1 {m}
  0, 0, 0,                                !- X,Y,Z Vertex 2 {m}
  100, 0, 0,                              !- X,Y,Z Vertex 3 {m}
  100, 0, 4;                              !- X,Y,Z Vertex 4 {m}

OS:Surface,
  {94402125-0418-4531-a650-4671a306316f}, !- Handle
  Surface 21,                             !- Name
  Wall,                                   !- Surface Type
  ,                                       !- Construction Name
  {6c8bcf90-5e67-4232-9d20-6972014d72ea}, !- Space Name
  Surface,                                !- Outside Boundary Condition
  {f160dbb3-a5e2-4d3f-a034-dae8b4e0cc55}, !- Outside Boundary Condition Object
  NoSun,                                  !- Sun Exposure
  NoWind,                                 !- Wind Exposure
  ,                                       !- View Factor to Ground
  ,                                       !- Number of Vertices
  3, 3, 4,                                !- X,Y,Z Vertex 1 {m}
  3, 3, 0,                                !- X,Y,Z Vertex 2 {m}
  0, 0, 0,                                !- X,Y,Z Vertex 3 {m}
  0, 0, 4;                                !- X,Y,Z Vertex 4 {m}

OS:Surface,
  {1f6bc151-e12c-4954-b52e-c69701e8aa5a}, !- Handle
  Surface 22,                             !- Name
  Wall,                                   !- Surface Type
  ,                                       !- Construction Name
  {6c8bcf90-5e67-4232-9d20-6972014d72ea}, !- Space Name
  Surface,                                !- Outside Boundary Condition
  {f29b1b12-255e-4e9e-906d-3621393b0ea8}, !- Outside Boundary Condition Object
  NoSun,                                  !- Sun Exposure
  NoWind,                                 !- Wind Exposure
  ,                                       !- View Factor to Ground
  ,                                       !- Number of Vertices
  97, 3, 4,                               !- X,Y,Z Vertex 1 {m}
  97, 3, 0,                               !- X,Y,Z Vertex 2 {m}
  3, 3, 0,                                !- X,Y,Z Vertex 3 {m}
  3, 3, 4;                                !- X,Y,Z Vertex 4 {m}

OS:Surface,
  {5f77a332-4b6b-41ca-8c9e-2bd8ac62ef4e}, !- Handle
  Surface 23,                             !- Name
  Wall,                                   !- Surface Type
  ,                                       !- Construction Name
  {6c8bcf90-5e67-4232-9d20-6972014d72ea}, !- Space Name
  Surface,                                !- Outside Boundary Condition
  {3cc7000f-5410-48ce-93b3-04f6458330c5}, !- Outside Boundary Condition Object
  NoSun,                                  !- Sun Exposure
  NoWind,                                 !- Wind Exposure
  ,                                       !- View Factor to Ground
  ,                                       !- Number of Vertices
  100, 0, 4,                              !- X,Y,Z Vertex 1 {m}
  100, 0, 0,                              !- X,Y,Z Vertex 2 {m}
  97, 3, 0,                               !- X,Y,Z Vertex 3 {m}
  97, 3, 4;                               !- X,Y,Z Vertex 4 {m}

OS:Surface,
  {78256091-379b-428f-a5b3-87fa80f14bd6}, !- Handle
  Surface 24,                             !- Name
  RoofCeiling,                            !- Surface Type
  ,                                       !- Construction Name
  {6c8bcf90-5e67-4232-9d20-6972014d72ea}, !- Space Name
  Surface,                                !- Outside Boundary Condition
  {1512b35e-c3af-4ccf-8ae3-6177d46b6d12}, !- Outside Boundary Condition Object
  NoSun,                                  !- Sun Exposure
  NoWind,                                 !- Wind Exposure
  ,                                       !- View Factor to Ground
  ,                                       !- Number of Vertices
  97, 3, 4,                               !- X,Y,Z Vertex 1 {m}
  3, 3, 4,                                !- X,Y,Z Vertex 2 {m}
  0, 0, 4,                                !- X,Y,Z Vertex 3 {m}
  100, 0, 4;                              !- X,Y,Z Vertex 4 {m}

OS:Space,
  {9dc58a92-df6a-479d-948f-ba4ef53ff15e}, !- Handle
  Story 1 Core Space,                     !- Name
  ,                                       !- Space Type Name
  ,                                       !- Default Construction Set Name
  ,                                       !- Default Schedule Set Name
  -0,                                     !- Direction of Relative North {deg}
  3,                                      !- X Origin {m}
  3,                                      !- Y Origin {m}
  0,                                      !- Z Origin {m}
  {7a0a5853-3fe4-46e7-ba9e-638a8e9730ea}, !- Building Story Name
  {f9878863-4535-41bf-9496-61a4b83da1da}; !- Thermal Zone Name

OS:Surface,
  {872f67d9-1757-4dc1-b4b3-9ce2fb3d9569}, !- Handle
  Surface 25,                             !- Name
  Floor,                                  !- Surface Type
  ,                                       !- Construction Name
  {9dc58a92-df6a-479d-948f-ba4ef53ff15e}, !- Space Name
  Ground,                                 !- Outside Boundary Condition
  ,                                       !- Outside Boundary Condition Object
  NoSun,                                  !- Sun Exposure
  NoWind,                                 !- Wind Exposure
  ,                                       !- View Factor to Ground
  ,                                       !- Number of Vertices
  0, 0, 0,                                !- X,Y,Z Vertex 1 {m}
  0, 44, 0,                               !- X,Y,Z Vertex 2 {m}
  94, 44, 0,                              !- X,Y,Z Vertex 3 {m}
  94, 0, 0;                               !- X,Y,Z Vertex 4 {m}

OS:Surface,
  {1c37f043-13f9-4940-b5df-20e76e6bbba5}, !- Handle
  Surface 26,                             !- Name
  Wall,                                   !- Surface Type
  ,                                       !- Construction Name
  {9dc58a92-df6a-479d-948f-ba4ef53ff15e}, !- Space Name
  Surface,                                !- Outside Boundary Condition
  {f7e0fa98-c6a6-4148-b099-d0ddbd05c996}, !- Outside Boundary Condition Object
  NoSun,                                  !- Sun Exposure
  NoWind,                                 !- Wind Exposure
  ,                                       !- View Factor to Ground
  ,                                       !- Number of Vertices
  0, 44, 4,                               !- X,Y,Z Vertex 1 {m}
  0, 44, 0,                               !- X,Y,Z Vertex 2 {m}
  0, 0, 0,                                !- X,Y,Z Vertex 3 {m}
  0, 0, 4;                                !- X,Y,Z Vertex 4 {m}

OS:Surface,
  {abdb293f-968e-4301-bf9f-a4d3d57c1f4b}, !- Handle
  Surface 27,                             !- Name
  Wall,                                   !- Surface Type
  ,                                       !- Construction Name
  {9dc58a92-df6a-479d-948f-ba4ef53ff15e}, !- Space Name
  Surface,                                !- Outside Boundary Condition
  {eb085be7-aa7d-403a-b25e-6606c19c5bc1}, !- Outside Boundary Condition Object
  NoSun,                                  !- Sun Exposure
  NoWind,                                 !- Wind Exposure
  ,                                       !- View Factor to Ground
  ,                                       !- Number of Vertices
  94, 44, 4,                              !- X,Y,Z Vertex 1 {m}
  94, 44, 0,                              !- X,Y,Z Vertex 2 {m}
  0, 44, 0,                               !- X,Y,Z Vertex 3 {m}
  0, 44, 4;                               !- X,Y,Z Vertex 4 {m}

OS:Surface,
  {5d0cc474-83aa-4d29-b539-c74c4c62075a}, !- Handle
  Surface 28,                             !- Name
  Wall,                                   !- Surface Type
  ,                                       !- Construction Name
  {9dc58a92-df6a-479d-948f-ba4ef53ff15e}, !- Space Name