
OS:Version,
  {60d1a5d9-1fa2-4d2b-a161-f2d8aa58b869}, !- Handle
  2.0.4;                                  !- Version Identifier

OS:BuildingStory,
  {2331411c-0a4c-4253-aed1-7377a52f5908}, !- Handle
  Story 1,                                !- Name
  0,                                      !- Nominal Z Coordinate {m}
  4,                                      !- Nominal Floor to Floor Height {m}
  ,                                       !- Default Construction Set Name
  ,                                       !- Default Schedule Set Name
  ;                                       !- Group Rendering Name

OS:Space,
  {22de5df4-b664-4359-84ca-e63b7de7d04e}, !- Handle
  Story 1 West Perimeter Space,           !- Name
  ,                                       !- Space Type Name
  ,                                       !- Default Construction Set Name
  ,                                       !- Default Schedule Set Name
  -0,                                     !- Direction of Relative North {deg}
  0,                                      !- X Origin {m}
  0,                                      !- Y Origin {m}
  0,                                      !- Z Origin {m}
  {2331411c-0a4c-4253-aed1-7377a52f5908}, !- Building Story Name
  {4b261927-08fe-41bc-90cb-e9e1849cbdab}; !- Thermal Zone Name

OS:Surface,
  {e9862183-dd80-4f16-9fc6-cce5e061f308}, !- Handle
  Surface 1,                              !- Name
  Floor,                                  !- Surface Type
  ,                                       !- Construction Name
  {22de5df4-b664-4359-84ca-e63b7de7d04e}, !- Space Name
  Ground,                                 !- Outside Boundary Condition
  ,                                       !- Outside Boundary Condition Object
  NoSun,                                  !- Sun Exposure
  NoWind,                                 !- Wind Exposure
  ,                                       !- View Factor to Ground
  ,                                       !- Number of Vertices
  0, 0, 0,                                !- X,Y,Z Vertex 1 {m}
  0, 50, 0,                               !- X,Y,Z Vertex 2 {m}
  6, 44, 0,                               !- X,Y,Z Vertex 3 {m}
  6, 6, 0;                                !- X,Y,Z Vertex 4 {m}

OS:Surface,
  {b13a2296-fd56-428b-9a74-0296fcc597f0}, !- Handle
  Surface 2,                              !- Name
  Wall,                                   !- Surface Type
  ,                                       !- Construction Name
  {22de5df4-b664-4359-84ca-e63b7de7d04e}, !- Space Name
  Outdoors,                               !- Outside Boundary Condition
  ,                                       !- Outside Boundary Condition Object
  SunExposed,                             !- Sun Exposure
  WindExposed,                            !- Wind Exposure
  ,                                       !- View Factor to Ground
  ,                                       !- Number of Vertices
  0, 50, 4,                               !- X,Y,Z Vertex 1 {m}
  0, 50, 0,                               !- X,Y,Z Vertex 2 {m}
  0, 0, 0,                                !- X,Y,Z Vertex 3 {m}
  0, 0, 4;                                !- X,Y,Z Vertex 4 {m}

OS:Surface,
  {c6a4e8cd-5197-4a1e-8f90-93d43061eb1d}, !- Handle
  Surface 3,                              !- Name
  Wall,                                   !- Surface Type
  ,                                       !- Construction Name
  {22de5df4-b664-4359-84ca-e63b7de7d04e}, !- Space Name
  Surface,                                !- Outside Boundary Condition
  {78c94149-6b2b-41fc-a401-1b047549f6ce}, !- Outside Boundary Condition Object
  NoSun,                                  !- Sun Exposure
  NoWind,                                 !- Wind Exposure
  ,                                       !- View Factor to Ground
  ,                                       !- Number of Vertices
  6, 44, 4,                               !- X,Y,Z Vertex 1 {m}
  6, 44, 0,                               !- X,Y,Z Vertex 2 {m}
  0, 50, 0,                               !- X,Y,Z Vertex 3 {m}
  0, 50, 4;                               !- X,Y,Z Vertex 4 {m}

OS:Surface,
  {eee844df-2a8a-4383-992f-3382866305a7}, !- Handle
  Surface 4,                              !- Name
  Wall,                                   !- Surface Type
  ,                                       !- Construction Name
  {22de5df4-b664-4359-84ca-e63b7de7d04e}, !- Space Name
  Surface,                                !- Outside Boundary Condition
  {514d584c-43fb-41b6-a65a-cb753793bf51}, !- Outside Boundary Condition Object
  NoSun,                                  !- Sun Exposure
  NoWind,                                 !- Wind Exposure
  ,                                       !- View Factor to Ground
  ,                                       !- Number of Vertices
  6, 6, 4,                                !- X,Y,Z Vertex 1 {m}
  6, 6, 0,                                !- X,Y,Z Vertex 2 {m}
  6, 44, 0,                               !- X,Y,Z Vertex 3 {m}
  6, 44, 4;                               !- X,Y,Z Vertex 4 {m}

OS:Surface,
  {10558ca6-1378-48a6-89c0-115978241170}, !- Handle
  Surface 5,                              !- Name
  Wall,                                   !- Surface Type
  ,                                       !- Construction Name
  {22de5df4-b664-4359-84ca-e63b7de7d04e}, !- Space Name
  Surface,                                !- Outside Boundary Condition
  {c09282bd-e7e9-472e-b5a5-08640e093e78}, !- Outside Boundary Condition Object
  NoSun,                                  !- Sun Exposure
  NoWind,                                 !- Wind Exposure
  ,                                       !- View Factor to Ground
  ,                                       !- Number of Vertices
  0, 0, 4,                                !- X,Y,Z Vertex 1 {m}
  0, 0, 0,                                !- X,Y,Z Vertex 2 {m}
  6, 6, 0,                                !- X,Y,Z Vertex 3 {m}
  6, 6, 4;                                !- X,Y,Z Vertex 4 {m}

OS:Surface,
  {d6783fa6-8956-419a-b924-a19df291b21e}, !- Handle
  Surface 6,                              !- Name
  RoofCeiling,                            !- Surface Type
  ,                                       !- Construction Name
  {22de5df4-b664-4359-84ca-e63b7de7d04e}, !- Space Name
  Surface,                                !- Outside Boundary Condition
  {8e3ce65a-0adb-41f4-9174-f3064692819e}, !- Outside Boundary Condition Object
  NoSun,                                  !- Sun Exposure
  NoWind,                                 !- Wind Exposure
  ,                                       !- View Factor to Ground
  ,                                       !- Number of Vertices
  6, 6, 4,                                !- X,Y,Z Vertex 1 {m}
  6, 44, 4,                               !- X,Y,Z Vertex 2 {m}
  0, 50, 4,                               !- X,Y,Z Vertex 3 {m}
  0, 0, 4;                                !- X,Y,Z Vertex 4 {m}

OS:Space,
  {94b23184-9060-4ac7-9b97-e2e9a715e5a8}, !- Handle
  Story 1 North Perimeter Space,          !- Name
  ,                                       !- Space Type Name
  ,                                       !- Default Construction Set Name
  ,                                       !- Default Schedule Set Name
  -0,                                     !- Direction of Relative North {deg}
  6,                                      !- X Origin {m}
  44,                                     !- Y Origin {m}
  0,                                      !- Z Origin {m}
  {2331411c-0a4c-4253-aed1-7377a52f5908}, !- Building Story Name
  {4b261927-08fe-41bc-90cb-e9e1849cbdab}; !- Thermal Zone Name

OS:Surface,
  {82a4eb43-6884-4f3b-b796-66c2ee76d672}, !- Handle
  Surface 7,                              !- Name
  Floor,                                  !- Surface Type
  ,                                       !- Construction Name
  {94b23184-9060-4ac7-9b97-e2e9a715e5a8}, !- Space Name
  Ground,                                 !- Outside Boundary Condition
  ,                                       !- Outside Boundary Condition Object
  NoSun,                                  !- Sun Exposure
  NoWind,                                 !- Wind Exposure
  ,                                       !- View Factor to Ground
  ,                                       !- Number of Vertices
  -6, 6, 0,                               !- X,Y,Z Vertex 1 {m}
  44, 6, 0,                               !- X,Y,Z Vertex 2 {m}
  38, 0, 0,                               !- X,Y,Z Vertex 3 {m}
  0, 0, 0;                                !- X,Y,Z Vertex 4 {m}

OS:Surface,
  {db5246d6-86e0-417f-a0eb-31a9b9d1c4d8}, !- Handle
  Surface 8,                              !- Name
  Wall,                                   !- Surface Type
  ,                                       !- Construction Name
  {94b23184-9060-4ac7-9b97-e2e9a715e5a8}, !- Space Name
  Outdoors,                               !- Outside Boundary Condition
  ,                                       !- Outside Boundary Condition Object
  SunExposed,                             !- Sun Exposure
  WindExposed,                            !- Wind Exposure
  ,                                       !- View Factor to Ground
  ,                                       !- Number of Vertices
  44, 6, 4,                               !- X,Y,Z Vertex 1 {m}
  44, 6, 0,                               !- X,Y,Z Vertex 2 {m}
  -6, 6, 0,                               !- X,Y,Z Vertex 3 {m}
  -6, 6, 4;                               !- X,Y,Z Vertex 4 {m}

OS:Surface,
  {fba2c4ea-7135-4c2f-9e91-17d81d265f90}, !- Handle
  Surface 9,                              !- Name
  Wall,                                   !- Surface Type
  ,                                       !- Construction Name
  {94b23184-9060-4ac7-9b97-e2e9a715e5a8}, !- Space Name
  Surface,                                !- Outside Boundary Condition
  {878edbd9-c607-498a-93d6-8efc58e72305}, !- Outside Boundary Condition Object
  NoSun,                                  !- Sun Exposure
  NoWind,                                 !- Wind Exposure
  ,                                       !- View Factor to Ground
  ,                                       !- Number of Vertices
  38, 0, 4,                               !- X,Y,Z Vertex 1 {m}
  38, 0, 0,                               !- X,Y,Z Vertex 2 {m}
  44, 6, 0,                               !- X,Y,Z Vertex 3 {m}
  44, 6, 4;                               !- X,Y,Z Vertex 4 {m}

OS:Surface,
  {1574576c-44fd-4841-ba3a-fc8d2180b0f0}, !- Handle
  Surface 10,                             !- Name
  Wall,                                   !- Surface Type
  ,                                       !- Construction Name
  {94b23184-9060-4ac7-9b97-e2e9a715e5a8}, !- Space Name
  Surface,                                !- Outside Boundary Condition
  {97d26476-21d9-4afd-8285-2f05d47a766a}, !- Outside Boundary Condition Object
  NoSun,                                  !- Sun Exposure
  NoWind,                                 !- Wind Exposure
  ,                                       !- View Factor to Ground
  ,                                       !- Number of Vertices
  0, 0, 4,                                !- X,Y,Z Vertex 1 {m}
  0, 0, 0,                                !- X,Y,Z Vertex 2 {m}
  38, 0, 0,                               !- X,Y,Z Vertex 3 {m}
  38, 0, 4;                               !- X,Y,Z Vertex 4 {m}

OS:Surface,
  {78c94149-6b2b-41fc-a401-1b047549f6ce}, !- Handle
  Surface 11,                             !- Name
  Wall,                                   !- Surface Type
  ,                                       !- Construction Name
  {94b23184-9060-4ac7-9b97-e2e9a715e5a8}, !- Space Name
  Surface,                                !- Outside Boundary Condition
  {c6a4e8cd-5197-4a1e-8f90-93d43061eb1d}, !- Outside Boundary Condition Object
  NoSun,                                  !- Sun Exposure
  NoWind,                                 !- Wind Exposure
  ,                                       !- View Factor to Ground
  ,                                       !- Number of Vertices
  -6, 6, 4,                               !- X,Y,Z Vertex 1 {m}
  -6, 6, 0,                               !- X,Y,Z Vertex 2 {m}
  0, 0, 0,                                !- X,Y,Z Vertex 3 {m}
  0, 0, 4;                                !- X,Y,Z Vertex 4 {m}

OS:Surface,
  {e436b9e1-46d7-4de2-babd-f161c6a5775c}, !- Handle
  Surface 12,                             !- Name
  RoofCeiling,                            !- Surface Type
  ,                                       !- Construction Name
  {94b23184-9060-4ac7-9b97-e2e9a715e5a8}, !- Space Name
  Surface,                                !- Outside Boundary Condition
  {693be95b-2761-43d0-8e7a-375792893e31}, !- Outside Boundary Condition Object
  NoSun,                                  !- Sun Exposure
  NoWind,                                 !- Wind Exposure
  ,                                       !- View Factor to Ground
  ,                                       !- Number of Vertices
  0, 0, 4,                                !- X,Y,Z Vertex 1 {m}
  38, 0, 4,                               !- X,Y,Z Vertex 2 {m}
  44, 6, 4,                               !- X,Y,Z Vertex 3 {m}
  -6, 6, 4;                               !- X,Y,Z Vertex 4 {m}

OS:Space,
  {6c840ba1-4931-4cc8-8fc8-56dc03070d03}, !- Handle
  Story 1 East Perimeter Space,           !- Name
  ,                                       !- Space Type Name
  ,                                       !- Default Construction Set Name
  ,                                       !- Default Schedule Set Name
  -0,                                     !- Direction of Relative North {deg}
  44,                                     !- X Origin {m}
  6,                                      !- Y Origin {m}
  0,                                      !- Z Origin {m}
  {2331411c-0a4c-4253-aed1-7377a52f5908}, !- Building Story Name
  {4b261927-08fe-41bc-90cb-e9e1849cbdab}; !- Thermal Zone Name

OS:Surface,
  {129f6658-6bd8-4d52-a40c-7f30abcce42f}, !- Handle
  Surface 13,                             !- Name
  Floor,                                  !- Surface Type
  ,                                       !- Construction Name
  {6c840ba1-4931-4cc8-8fc8-56dc03070d03}, !- Space Name
  Ground,                                 !- Outside Boundary Condition
  ,                                       !- Outside Boundary Condition Object
  NoSun,                                  !- Sun Exposure
  NoWind,                                 !- Wind Exposure
  ,                                       !- View Factor to Ground
  ,                                       !- Number of Vertices
  6, 44, 0,                               !- X,Y,Z Vertex 1 {m}
  6, -6, 0,                               !- X,Y,Z Vertex 2 {m}
  0, 0, 0,                                !- X,Y,Z Vertex 3 {m}
  0, 38, 0;                               !- X,Y,Z Vertex 4 {m}

OS:Surface,
  {c0432704-8f07-4543-9242-008124e6885b}, !- Handle
  Surface 14,                             !- Name
  Wall,                                   !- Surface Type
  ,                                       !- Construction Name
  {6c840ba1-4931-4cc8-8fc8-56dc03070d03}, !- Space Name
  Outdoors,                               !- Outside Boundary Condition
  ,                                       !- Outside Boundary Condition Object
  SunExposed,                             !- Sun Exposure
  WindExposed,                            !- Wind Exposure
  ,                                       !- View Factor to Ground
  ,                                       !- Number of Vertices
  6, -6, 4,                               !- X,Y,Z Vertex 1 {m}
  6, -6, 0,                               !- X,Y,Z Vertex 2 {m}
  6, 44, 0,                               !- X,Y,Z Vertex 3 {m}
  6, 44, 4;                               !- X,Y,Z Vertex 4 {m}

OS:Surface,
  {9a617a35-b462-4479-8759-ab541a9f404e}, !- Handle
  Surface 15,                             !- Name
  Wall,                                   !- Surface Type
  ,                                       !- Construction Name
  {6c840ba1-4931-4cc8-8fc8-56dc03070d03}, !- Space Name
  Surface,                                !- Outside Boundary Condition
  {5acec0f2-c6eb-4a87-8b81-dd99a53105cf}, !- Outside Boundary Condition Object
  NoSun,                                  !- Sun Exposure
  NoWind,                                 !- Wind Exposure
  ,                                       !- View Factor to Ground
  ,                                       !- Number of Vertices
  0, 0, 4,                                !- X,Y,Z Vertex 1 {m}
  0, 0, 0,                                !- X,Y,Z Vertex 2 {m}
  6, -6, 0,                               !- X,Y,Z Vertex 3 {m}
  6, -6, 4;                               !- X,Y,Z Vertex 4 {m}

OS:Surface,
  {ae277ec7-6219-4ff5-8b85-3166d35c221a}, !- Handle
  Surface 16,                             !- Name
  Wall,                                   !- Surface Type
  ,                                       !- Construction Name
  {6c840ba1-4931-4cc8-8fc8-56dc03070d03}, !- Space Name
  Surface,                                !- Outside Boundary Condition
  {8cfdd5f6-fdaa-492a-87d8-8d80cf506832}, !- Outside Boundary Condition Object
  NoSun,                                  !- Sun Exposure
  NoWind,                                 !- Wind Exposure
  ,                                       !- View Factor to Ground
  ,                                       !- Number of Vertices
  0, 38, 4,                               !- X,Y,Z Vertex 1 {m}
  0, 38, 0,                               !- X,Y,Z Vertex 2 {m}
  0, 0, 0,                                !- X,Y,Z Vertex 3 {m}
  0, 0, 4;                                !- X,Y,Z Vertex 4 {m}

OS:Surface,
  {878edbd9-c607-498a-93d6-8efc58e72305}, !- Handle
  Surface 17,                             !- Name
  Wall,                                   !- Surface Type
  ,                                       !- Construction Name
  {6c840ba1-4931-4cc8-8fc8-56dc03070d03}, !- Space Name
  Surface,                                !- Outside Boundary Condition
  {fba2c4ea-7135-4c2f-9e91-17d81d265f90}, !- Outside Boundary Condition Object
  NoSun,                                  !- Sun Exposure
  NoWind,                                 !- Wind Exposure
  ,                                       !- View Factor to Ground
  ,                                       !- Number of Vertices
  6, 44, 4,                               !- X,Y,Z Vertex 1 {m}
  6, 44, 0,                               !- X,Y,Z Vertex 2 {m}
  0, 38, 0,                               !- X,Y,Z Vertex 3 {m}
  0, 38, 4;                               !- X,Y,Z Vertex 4 {m}

OS:Surface,
  {d5e205a9-8fb5-465a-8795-0a9522b109f4}, !- Handle
  Surface 18,                             !- Name
  RoofCeiling,                            !- Surface Type
  ,                                       !- Construction Name
  {6c840ba1-4931-4cc8-8fc8-56dc03070d03}, !- Space Name
  Surface,                                !- Outside Boundary Condition
  {25ab9a8b-c07a-448d-b600-e45b83b7411a}, !- Outside Boundary Condition Object
  NoSun,                                  !- Sun Exposure
  NoWind,                                 !- Wind Exposure
  ,                                       !- View Factor to Ground
  ,                                       !- Number of Vertices
  0, 38, 4,                               !- X,Y,Z Vertex 1 {m}
  0, 0, 4,                                !- X,Y,Z Vertex 2 {m}
  6, -6, 4,                               !- X,Y,Z Vertex 3 {m}
  6, 44, 4;                               !- X,Y,Z Vertex 4 {m}

OS:Space,
  {a4bbef83-9662-42e0-b53b-ced4e8b17e8e}, !- Handle
  Story 1 South Perimeter Space,          !- Name
  ,                                       !- Space Type Name
  ,                                       !- Default Construction Set Name
  ,                                       !- Default Schedule Set Name
  -0,                                     !- Direction of Relative North {deg}
  0,                                      !- X Origin {m}
  0,                                      !- Y Origin {m}
  0,                                      !- Z Origin {m}
  {2331411c-0a4c-4253-aed1-7377a52f5908}, !- Building Story Name
  {4b261927-08fe-41bc-90cb-e9e1849cbdab}; !- Thermal Zone Name

OS:Surface,
  {174854fc-aa8a-4405-979f-34fe635ddd34}, !- Handle
  Surface 19,                             !- Name
  Floor,                                  !- Surface Type
  ,                                       !- Construction Name
  {a4bbef83-9662-42e0-b53b-ced4e8b17e8e}, !- Space Name
  Ground,                                 !- Outside Boundary Condition
  ,                                       !- Outside Boundary Condition Object
  NoSun,                                  !- Sun Exposure
  NoWind,                                 !- Wind Exposure
  ,                                       !- View Factor to Ground
  ,                                       !- Number of Vertices
  50, 0, 0,                               !- X,Y,Z Vertex 1 {m}
  0, 0, 0,                                !- X,Y,Z Vertex 2 {m}
  6, 6, 0,                                !- X,Y,Z Vertex 3 {m}
  44, 6, 0;                               !- X,Y,Z Vertex 4 {m}

OS:Surface,
  {55754bb9-78a6-4409-af55-13fa15ee61a4}, !- Handle
  Surface 20,                             !- Name
  Wall,                                   !- Surface Type
  ,                                       !- Construction Name
  {a4bbef83-9662-42e0-b53b-ced4e8b17e8e}, !- Space Name
  Outdoors,                               !- Outside Boundary Condition
  ,                                       !- Outside Boundary Condition Object
  SunExposed,                             !- Sun Exposure
  WindExposed,                            !- Wind Exposure
  ,                                       !- View Factor to Ground
  ,                                       !- Number of Vertices
  0, 0, 4,                                !- X,Y,Z Vertex 1 {m}
  0, 0, 0,                                !- X,Y,Z Vertex 2 {m}
  50, 0, 0,                               !- X,Y,Z Vertex 3 {m}
  50, 0, 4;                               !- X,Y,Z Vertex 4 {m}

OS:Surface,
  {c09282bd-e7e9-472e-b5a5-08640e093e78}, !- Handle
  Surface 21,                             !- Name
  Wall,                                   !- Surface Type
  ,                                       !- Construction Name
  {a4bbef83-9662-42e0-b53b-ced4e8b17e8e}, !- Space Name
  Surface,                                !- Outside Boundary Condition
  {10558ca6-1378-48a6-89c0-115978241170}, !- Outside Boundary Condition Object
  NoSun,                                  !- Sun Exposure
  NoWind,                                 !- Wind Exposure
  ,                                       !- View Factor to Ground
  ,                                       !- Number of Vertices
  6, 6, 4,                                !- X,Y,Z Vertex 1 {m}
  6, 6, 0,                                !- X,Y,Z Vertex 2 {m}
  0, 0, 0,                                !- X,Y,Z Vertex 3 {m}
  0, 0, 4;                                !- X,Y,Z Vertex 4 {m}

OS:Surface,
  {0e8be62b-c24b-43bc-a747-c5c48020cfa8}, !- Handle
  Surface 22,                             !- Name
  Wall,                                   !- Surface Type
  ,                                       !- Construction Name
  {a4bbef83-9662-42e0-b53b-ced4e8b17e8e}, !- Space Name
  Surface,                                !- Outside Boundary Condition
  {70620f39-252e-4254-96da-3d1d10e8b63a}, !- Outside Boundary Condition Object
  NoSun,                                  !- Sun Exposure
  NoWind,                                 !- Wind Exposure
  ,                                       !- View Factor to Ground
  ,                                       !- Number of Vertices
  44, 6, 4,                               !- X,Y,Z Vertex 1 {m}
  44, 6, 0,                               !- X,Y,Z Vertex 2 {m}
  6, 6, 0,                                !- X,Y,Z Vertex 3 {m}
  6, 6, 4;                                !- X,Y,Z Vertex 4 {m}

OS:Surface,
  {5acec0f2-c6eb-4a87-8b81-dd99a53105cf}, !- Handle
  Surface 23,                             !- Name
  Wall,                                   !- Surface Type
  ,                                       !- Construction Name
  {a4bbef83-9662-42e0-b53b-ced4e8b17e8e}, !- Space Name
  Surface,                                !- Outside Boundary Condition
  {9a617a35-b462-4479-8759-ab541a9f404e}, !- Outside Boundary Condition Object
  NoSun,                                  !- Sun Exposure
  NoWind,                                 !- Wind Exposure
  ,                                       !- View Factor to Ground
  ,                                       !- Number of Vertices
  50, 0, 4,                               !- X,Y,Z Vertex 1 {m}
  50, 0, 0,                               !- X,Y,Z Vertex 2 {m}
  44, 6, 0,                               !- X,Y,Z Vertex 3 {m}
  44, 6, 4;                               !- X,Y,Z Vertex 4 {m}

OS:Surface,
  {78fe97c8-b6fc-4521-82ab-668b0128c632}, !- Handle
  Surface 24,                             !- Name
  RoofCeiling,                            !- Surface Type
  ,                                       !- Construction Name
  {a4bbef83-9662-42e0-b53b-ced4e8b17e8e}, !- Space Name
  Surface,                                !- Outside Boundary Condition
  {37e55d1c-74ad-42de-8279-a8e07cb80265}, !- Outside Boundary Condition Object
  NoSun,                                  !- Sun Exposure
  NoWind,                                 !- Wind Exposure
  ,                                       !- View Factor to Ground
  ,                                       !- Number of Vertices
  44, 6, 4,                               !- X,Y,Z Vertex 1 {m}
  6, 6, 4,                                !- X,Y,Z Vertex 2 {m}
  0, 0, 4,                                !- X,Y,Z Vertex 3 {m}
  50, 0, 4;                               !- X,Y,Z Vertex 4 {m}

OS:Space,
  {7634bdce-cf91-40c4-b765-d8b963a4eba6}, !- Handle
  Story 1 Core Space,                     !- Name
  ,                                       !- Space Type Name
  ,                                       !- Default Construction Set Name
  ,                                       !- Default Schedule Set Name
  -0,                                     !- Direction of Relative North {deg}
  6,                                      !- X Origin {m}
  6,                                      !- Y Origin {m}
  0,                                      !- Z Origin {m}
  {2331411c-0a4c-4253-aed1-7377a52f5908}, !- Building Story Name
  {4b261927-08fe-41bc-90cb-e9e1849cbdab}; !- Thermal Zone Name

OS:Surface,
  {7337f281-8c68-46a7-9578-253595dfef17}, !- Handle
  Surface 25,                             !- Name
  Floor,                                  !- Surface Type
  ,                                       !- Construction Name
  {7634bdce-cf91-40c4-b765-d8b963a4eba6}, !- Space Name
  Ground,                                 !- Outside Boundary Condition
  ,                                       !- Outside Boundary Condition Object
  NoSun,                                  !- Sun Exposure
  NoWind,                                 !- Wind Exposure
  ,                                       !- View Factor to Ground
  ,                                       !- Number of Vertices
  0, 0, 0,                                !- X,Y,Z Vertex 1 {m}
  0, 38, 0,                               !- X,Y,Z Vertex 2 {m}
  38, 38, 0,                              !- X,Y,Z Vertex 3 {m}
  38, 0, 0;                               !- X,Y,Z Vertex 4 {m}

OS:Surface,
  {514d584c-43fb-41b6-a65a-cb753793bf51}, !- Handle
  Surface 26,                             !- Name
  Wall,                                   !- Surface Type
  ,                                       !- Construction Name
  {7634bdce-cf91-40c4-b765-d8b963a4eba6}, !- Space Name
  Surface,                                !- Outside Boundary Condition
  {eee844df-2a8a-4383-992f-3382866305a7}, !- Outside Boundary Condition Object
  NoSun,                                  !- Sun Exposure
  NoWind,                                 !- Wind Exposure
  ,                                       !- View Factor to Ground
  ,                                       !- Number of Vertices
  0, 38, 4,                               !- X,Y,Z Vertex 1 {m}
  0, 38, 0,                               !- X,Y,Z Vertex 2 {m}
  0, 0, 0,                                !- X,Y,Z Vertex 3 {m}
  0, 0, 4;                                !- X,Y,Z Vertex 4 {m}

OS:Surface,
  {97d26476-21d9-4afd-8285-2f05d47a766a}, !- Handle
  Surface 27,                             !- Name
  Wall,                                   !- Surface Type
  ,                                       !- Construction Name
  {7634bdce-cf91-40c4-b765-d8b963a4eba6}, !- Space Name
  Surface,                                !- Outside Boundary Condition
  {1574576c-44fd-4841-ba3a-fc8d2180b0f0}, !- Outside Boundary Condition Object
  NoSun,                                  !- Sun Exposure
  NoWind,                                 !- Wind Exposure
  ,                                       !- View Factor to Ground
  ,                                       !- Number of Vertices
  38, 38, 4,                              !- X,Y,Z Vertex 1 {m}
  38, 38, 0,                              !- X,Y,Z Vertex 2 {m}
  0, 38, 0,                               !- X,Y,Z Vertex 3 {m}
  0, 38, 4;                               !- X,Y,Z Vertex 4 {m}

OS:Surface,
  {8cfdd5f6-fdaa-492a-87d8-8d80cf506832}, !- Handle
  Surface 28,                             !- Name
  Wall,                                   !- Surface Type
  ,                                       !- Construction Name
  {7634bdce-cf91-40c4-b765-d8b963a4eba6}, !- Space Name