
OS:Version,
  {9c674899-6a6b-4b94-b02d-6b874bd8d3f3}, !- Handle
  0.11.5;                                 !- Version Identifier

OS:SimulationControl,
  {a7b67aeb-34b9-4d4c-a88d-a664eaec4c3a}, !- Handle
  Yes,                                    !- Do Zone Sizing Calculation
  Yes,                                    !- Do System Sizing Calculation
  ,                                       !- Do Plant Sizing Calculation
  No,                                     !- Run Simulation for Sizing Periods
  Yes;                                    !- Run Simulation for Weather File Run Periods

OS:Timestep,
  {93cac265-51b7-48d4-9d21-583ba9e920f3}, !- Handle
  6;                                      !- Number of Timesteps per Hour

OS:RunPeriod,
  {c9ce4952-41d9-4098-8eb7-f19e83bd60e3}, !- Handle
  Run Period 1,                           !- Name
  1,                                      !- Begin Month
  1,                                      !- Begin Day of Month
  12,                                     !- End Month
  31,                                     !- End Day of Month
  No,                                     !- Use Weather File Holidays and Special Days
  No,                                     !- Use Weather File Daylight Saving Period
  No,                                     !- Apply Weekend Holiday Rule
  Yes,                                    !- Use Weather File Rain Indicators
  Yes,                                    !- Use Weather File Snow Indicators
  1;                                      !- Number of Times Runperiod to be Repeated

OS:SurfaceConvectionAlgorithm:Inside,
  {c11abee7-589a-4d1f-a0ee-69949bd0f872}, !- Handle
  TARP;                                   !- Algorithm

OS:SurfaceConvectionAlgorithm:Outside,
  {72db8633-c2ee-4a45-b97d-2bb16c4730e6}, !- Handle
  DOE-2;                                  !- Algorithm

OS:HeatBalanceAlgorithm,
  {a3f5e2a3-b065-4128-b352-d20c11507acf}, !- Handle
  ConductionTransferFunction,             !- Algorithm
  200;                                    !- Surface Temperature Upper Limit {F}

OS:ZoneAirHeatBalanceAlgorithm,
  {469690f8-cddc-4669-b94f-330f7ef7bf80}, !- Handle
  AnalyticalSolution;                     !- Algorithm

OS:ConvergenceLimits,
  {fc75b4c2-02fa-423a-8072-d0b813e596b3}; !- Handle

OS:ShadowCalculation,
  {593876de-2a6b-44fe-aaad-dbe5a6109c95}, !- Handle
  7,                                      !- Calculation Frequency
  15000;                                  !- Maximum Figures in Shadow Overlap Calculations

OS:Site,
  {eaba8be4-15b8-4fa0-bb28-0cc36fce1a81}, !- Handle
  Site 1,                                 !- Name
  41.77,                                  !- Latitude {deg}
  -87.75,                                 !- Longitude {deg}
  -6,                                     !- Time Zone {hr}
  190,                                    !- Elevation {m}
  ;                                       !- Terrain

OS:Site:GroundTemperature:BuildingSurface,
  {a362b041-a8b0-4046-959b-67bf65752ae8}, !- Handle
  19.527,                                 !- January Ground Temperature {C}
  19.502,                                 !- February Ground Temperature {C}
  19.536,                                 !- March Ground Temperature {C}
  19.598,                                 !- April Ground Temperature {C}
  20.002,                                 !- May Ground Temperature {C}
  21.64,                                  !- June Ground Temperature {C}
  22.225,                                 !- July Ground Temperature {C}
  22.375,                                 !- August Ground Temperature {C}
  21.449,                                 !- September Ground Temperature {C}
  20.121,                                 !- October Ground Temperature {C}
  19.802,                                 !- November Ground Temperature {C}
  19.633;                                 !- December Ground Temperature {C}

OS:Site:WaterMainsTemperature,
  {12fb5a6e-3704-44d5-9863-8637d7ec3872}, !- Handle
  Correlation,                            !- Calculation Method
  ,                                       !- Temperature Schedule Name
  9.69,                                   !- Annual Average Outdoor Air Temperature {C}
  28.1;                                   !- Maximum Difference In Monthly Average Outdoor Air Temperatures {deltaC}

OS:SizingPeriod:DesignDay,
  {25ff38c4-44f1-4b97-92fe-b2ed0cb769df}, !- Handle
  Sizing Period Design Day 1,             !- Name
  -20.6,                                  !- Maximum Dry-Bulb Temperature {C}
  0,                                      !- Daily Dry-Bulb Temperature Range {deltaC}
  -20.6,                                  !- Humidity Indicating Conditions at Maximum Dry-Bulb {BasedOnField A3}
  99063,                                  !- Barometric Pressure {Pa}
  4.9,                                    !- Wind Speed {m/s}
  270,                                    !- Wind Direction {deg}
  0,                                      !- Sky Clearness
  0,                                      !- Rain Indicator
  0,                                      !- Snow Indicator
  21,                                     !- Day of Month
  1,                                      !- Month
  WinterDesignDay,                        !- Day Type
  0,                                      !- Daylight Saving Time Indicator
  WetBulb,                                !- Humidity Indicating Type
  ,                                       !- Humidity Indicating Day Schedule Name
  DefaultMultipliers,                     !- Dry-Bulb Temperature Range Modifier Type
  ,                                       !- Dry-Bulb Temperature Range Modifier Schedule Name
  AshraeClearSky;                         !- Solar Model Indicator

OS:SizingPeriod:DesignDay,
  {837dea24-f89d-4693-b4d4-e249d92f25df}, !- Handle
  Sizing Period Design Day 2,             !- Name
  33.2,                                   !- Maximum Dry-Bulb Temperature {C}
  10.7,                                   !- Daily Dry-Bulb Temperature Range {deltaC}
  23.8,                                   !- Humidity Indicating Conditions at Maximum Dry-Bulb {BasedOnField A3}
  99063,                                  !- Barometric Pressure {Pa}
  5.3,                                    !- Wind Speed {m/s}
  230,                                    !- Wind Direction {deg}
  1,                                      !- Sky Clearness
  0,                                      !- Rain Indicator
  0,                                      !- Snow Indicator
  21,                                     !- Day of Month
  7,                                      !- Month
  SummerDesignDay,                        !- Day Type
  0,                                      !- Daylight Saving Time Indicator
  WetBulb,                                !- Humidity Indicating Type
  ,                                       !- Humidity Indicating Day Schedule Name
  DefaultMultipliers,                     !- Dry-Bulb Temperature Range Modifier Type
  ,                                       !- Dry-Bulb Temperature Range Modifier Schedule Name
  AshraeClearSky;                         !- Solar Model Indicator

OS:ScheduleTypeLimits,
  {c46f4df5-5df0-4d61-93a8-d427d3b119f1}, !- Handle
  Temperature,                            !- Name
  -60,                                    !- Lower Limit Value {BasedOnField A4}
  200,                                    !- Upper Limit Value {BasedOnField A4}
  CONTINUOUS,                             !- Numeric Type
  Temperature;                            !- Unit Type

OS:DefaultScheduleSet,
  {7eaf0a17-373c-463b-82f9-d81b335b37bd}, !- Handle
  Default Schedules,                      !- Name
  ,                                       !- Hours of Operation Schedule Name
  {6c441344-f2e3-4fa5-8d02-380ebf826e9c}, !- Number of People Schedule Name
  {71fc525a-a7f4-43cb-83ad-df966d9b6101}, !- People Activity Level Schedule Name
  {125105d4-f0a4-4cd5-af0f-ac5127393236}, !- Lighting Schedule Name
  {7e2707fb-56b2-4ccc-b2a8-c2acb79799dc}, !- Electric Equipment Schedule Name
  {86bf506f-958b-443e-9104-0015f2f0878e}, !- Gas Equipment Schedule Name
  {00ef1be7-a128-4fae-8ea7-07f924db7861}, !- Hot Water Equipment Schedule Name
  {7f734776-16d6-40a6-a630-0d12639d0744}, !- Infiltration Schedule Name
  ,                                       !- Steam Equipment Schedule Name
  ;                                       !- Other Equipment Schedule Name

OS:Schedule:Ruleset,
  {6c441344-f2e3-4fa5-8d02-380ebf826e9c}, !- Handle
  Medium Office Number of People Schedule, !- Name
  {d4988188-16af-472c-9eb4-db3478ad3f6d}, !- Schedule Type Limits Name
  {1ded7f56-3a81-49e7-90ec-50ec9e0fece8}, !- Default Day Schedule Name
  {b93a6ca4-6311-4efe-8776-18e39ff6a3e6}; !- Summer Design Day Schedule Name

OS:Schedule:Day,
  {1ded7f56-3a81-49e7-90ec-50ec9e0fece8}, !- Handle
  Medium Office Number of People All Other Days Schedule, !- Name
  {d4988188-16af-472c-9eb4-db3478ad3f6d}, !- Schedule Type Limits Name
  ,                                       !- Interpolate to Timestep
  24,                                     !- Hour 1
  0,                                      !- Minute 1
  0;                                      !- Value Until Time 1

OS:Schedule:Day,
  {28410af4-151f-4cc0-9095-eea7a43911de}, !- Handle
  Medium Office Number of People Summer Design Day Schedule, !- Name
  ,                                       !- Schedule Type Limits Name
  ,                                       !- Interpolate to Timestep
  6,                                      !- Hour 1
  0,                                      !- Minute 1
  0,                                      !- Value Until Time 1
  22,                                     !- Hour 2
  0,                                      !- Minute 2
  1,                                      !- Value Until Time 2
  24,                                     !- Hour 3
  0,                                      !- Minute 3
  0.05;                                   !- Value Until Time 3

OS:Schedule:Day,
  {b93a6ca4-6311-4efe-8776-18e39ff6a3e6}, !- Handle
  Medium Office Number of People Summer Design Day Schedule 1, !- Name
  {d4988188-16af-472c-9eb4-db3478ad3f6d}, !- Schedule Type Limits Name
  ,                                       !- Interpolate to Timestep
  6,                                      !- Hour 1
  0,                                      !- Minute 1
  0,                                      !- Value Until Time 1
  22,                                     !- Hour 2
  0,                                      !- Minute 2
  1,                                      !- Value Until Time 2
  24,                                     !- Hour 3
  0,                                      !- Minute 3
  0.05;                                   !- Value Until Time 3

OS:Schedule:Rule,
  {5049ec46-7883-4a58-9e2f-e77855c4e7d9}, !- Handle
  Medium Office Number of People Schedule Weekdays Rule, !- Name
  {6c441344-f2e3-4fa5-8d02-380ebf826e9c}, !- Schedule Ruleset Name
  1,                                      !- Rule Order
  {a68f8049-3333-4115-aab0-fd45343330af}, !- Day Schedule Name
  ,                                       !- Apply Sunday
  Yes,                                    !- Apply Monday
  Yes,                                    !- Apply Tuesday
  Yes,                                    !- Apply Wednesday
  Yes,                                    !- Apply Thursday
  Yes;                                    !- Apply Friday

OS:Schedule:Day,
  {a68f8049-3333-4115-aab0-fd45343330af}, !- Handle
  Medium Office Number of People Weekdays Schedule, !- Name
  {d4988188-16af-472c-9eb4-db3478ad3f6d}, !- Schedule Type Limits Name
  ,                                       !- Interpolate to Timestep
  6,                                      !- Hour 1
  0,                                      !- Minute 1
  0,                                      !- Value Until Time 1
  7,                                      !- Hour 2
  0,                                      !- Minute 2
  0.1,                                    !- Value Until Time 2
  8,                                      !- Hour 3
  0,                                      !- Minute 3
  0.2,                                    !- Value Until Time 3
  12,                                     !- Hour 4
  0,                                      !- Minute 4
  0.95,                                   !- Value Until Time 4
  13,                                     !- Hour 5
  0,                                      !- Minute 5
  0.5,                                    !- Value Until Time 5
  17,                                     !- Hour 6
  0,                                      !- Minute 6
  0.95,                                   !- Value Until Time 6
  18,                                     !- Hour 7
  0,                                      !- Minute 7
  0.7,                                    !- Value Until Time 7
  20,                                     !- Hour 8
  0,                                      !- Minute 8
  0.4,                                    !- Value Until Time 8
  22,                                     !- Hour 9
  0,                                      !- Minute 9
  0.1,                                    !- Value Until Time 9
  24,                                     !- Hour 10
  0,                                      !- Minute 10
  0.05;                                   !- Value Until Time 10

OS:Schedule:Rule,
  {c1166b91-aafd-4fa3-a0ae-5c56d8e4537c}, !- Handle
  Medium Office Number of People Schedule Saturday Rule, !- Name
  {6c441344-f2e3-4fa5-8d02-380ebf826e9c}, !- Schedule Ruleset Name
  0,                                      !- Rule Order
  {a2b124e2-2121-41f3-b97d-a89bced93819}, !- Day Schedule Name
  ,                                       !- Apply Sunday
  ,                                       !- Apply Monday
  ,                                       !- Apply Tuesday
  ,                                       !- Apply Wednesday
  ,                                       !- Apply Thursday
  ,                                       !- Apply Friday
  Yes;                                    !- Apply Saturday

OS:Schedule:Day,
  {a2b124e2-2121-41f3-b97d-a89bced93819}, !- Handle
  Medium Office Number of People Saturday Schedule, !- Name
  {d4988188-16af-472c-9eb4-db3478ad3f6d}, !- Schedule Type Limits Name
  ,                                       !- Interpolate to Timestep
  6,                                      !- Hour 1
  0,                                      !- Minute 1
  0,                                      !- Value Until Time 1
  8,                                      !- Hour 2
  0,                                      !- Minute 2
  0.1,                                    !- Value Until Time 2
  14,                                     !- Hour 3
  0,                                      !- Minute 3
  0.5,                                    !- Value Until Time 3
  17,                                     !- Hour 4
  0,                                      !- Minute 4
  0.1,                                    !- Value Until Time 4
  24,                                     !- Hour 5
  0,                                      !- Minute 5
  0;                                      !- Value Until Time 5

OS:ScheduleTypeLimits,
  {d4988188-16af-472c-9eb4-db3478ad3f6d}, !- Handle
  Fractional,                             !- Name
  0,                                      !- Lower Limit Value {BasedOnField A4}
  1,                                      !- Upper Limit Value {BasedOnField A4}
  Continuous;                             !- Numeric Type

OS:Schedule:Ruleset,
  {71fc525a-a7f4-43cb-83ad-df966d9b6101}, !- Handle
  Medium Office People Activity Level Schedule, !- Name
  {e7095d6d-554c-407c-a3b7-eae9596f4c36}, !- Schedule Type Limits Name
  {1ba0bf77-4cd9-4a8e-9509-31f0feaa5877}; !- Default Day Schedule Name

OS:Schedule:Day,
  {1ba0bf77-4cd9-4a8e-9509-31f0feaa5877}, !- Handle
  Medium Office People Activity Level All Days Schedule, !- Name
  {e7095d6d-554c-407c-a3b7-eae9596f4c36}, !- Schedule Type Limits Name
  ,                                       !- Interpolate to Timestep
  24,                                     !- Hour 1
  0,                                      !- Minute 1
  120;                                    !- Value Until Time 1

OS:ScheduleTypeLimits,
  {e7095d6d-554c-407c-a3b7-eae9596f4c36}, !- Handle
  ActivityLevel,                          !- Name
  0,                                      !- Lower Limit Value {BasedOnField A4}
  ,                                       !- Upper Limit Value {BasedOnField A4}
  Continuous,                             !- Numeric Type
  ActivityLevel;                          !- Unit Type

OS:Schedule:Ruleset,
  {125105d4-f0a4-4cd5-af0f-ac5127393236}, !- Handle
  Medium Office Lighting Schedule,        !- Name
  {d4988188-16af-472c-9eb4-db3478ad3f6d}, !- Schedule Type Limits Name
  {0527f629-0991-4271-a5ed-6d633b80fa63}, !- Default Day Schedule Name
  {176fd5a8-d455-458f-b8c3-d531eb670b50}, !- Summer Design Day Schedule Name
  {2dbb779a-57f2-4b2e-9fe4-283b3dac4bf9}; !- Winter Design Day Schedule Name

OS:Schedule:Day,
  {0527f629-0991-4271-a5ed-6d633b80fa63}, !- Handle
  Medium Office Lighting All Other Days Schedule, !- Name
  {d4988188-16af-472c-9eb4-db3478ad3f6d}, !- Schedule Type Limits Name
  ,                                       !- Interpolate to Timestep
  24,                                     !- Hour 1
  0,                                      !- Minute 1
  0.05;                                   !- Value Until Time 1

OS:Schedule:Day,
  {c54a25a3-7b59-4217-a974-4412ee918aef}, !- Handle
  Medium Office Lighting Summer Design Day Schedule, !- Name
  ,                                       !- Schedule Type Limits Name
  ,                                       !- Interpolate to Timestep
  6,                                      !- Hour 1
  0,                                      !- Minute 1
  1,                                      !- Value Until Time 1
  24,                                     !- Hour 2
  0,                                      !- Minute 2
  0;                                      !- Value Until Time 2

OS:Schedule:Day,
  {176fd5a8-d455-458f-b8c3-d531eb670b50}, !- Handle
  Medium Office Lighting Summer Design Day Schedule 1, !- Name
  {d4988188-16af-472c-9eb4-db3478ad3f6d}, !- Schedule Type Limits Name
  ,                                       !- Interpolate to Timestep
  6,                                      !- Hour 1
  0,                                      !- Minute 1
  1,                                      !- Value Until Time 1
  24,                                     !- Hour 2
  0,                                      !- Minute 2
  0;                                      !- Value Until Time 2

OS:Schedule:Day,
  {17d2b40d-ac3e-4690-b67c-00bc89ac8a4b}, !- Handle
  Medium Office Lighting Winter Design Day Schedule, !- Name
  ,                                       !- Schedule Type Limits Name
  ,                                       !- Interpolate to Timestep
  24,                                     !- Hour 1
  0,                                      !- Minute 1
  0;                                      !- Value Until Time 1

OS:Schedule:Day,
  {2dbb779a-57f2-4b2e-9fe4-283b3dac4bf9}, !- Handle
  Medium Office Lighting Winter Design Day Schedule 1, !- Name
  {d4988188-16af-472c-9eb4-db3478ad3f6d}, !- Schedule Type Limits Name
  ,                                       !- Interpolate to Timestep
  24,                                     !- Hour 1
  0,                                      !- Minute 1
  0;                                      !- Value Until Time 1

OS:Schedule:Rule,
  {35a93c11-f9f3-44a8-af8d-cc765ba7db8d}, !- Handle
  Medium Office Lighting Schedule Weekdays Rule, !- Name
  {125105d4-f0a4-4cd5-af0f-ac5127393236}, !- Schedule Ruleset Name
  1,                                      !- Rule Order
  {2e5b0cd2-e7e2-4951-9a36-7b551787c70b}, !- Day Schedule Name
  ,                                       !- Apply Sunday
  Yes,                                    !- Apply Monday
  Yes,                                    !- Apply Tuesday
  Yes,                                    !- Apply Wednesday
  Yes,                                    !- Apply Thursday
  Yes;                                    !- Apply Friday

OS:Schedule:Day,
  {2e5b0cd2-e7e2-4951-9a36-7b551787c70b}, !- Handle
  Medium Office Lighting Weekdays Schedule, !- Name
  {d4988188-16af-472c-9eb4-db3478ad3f6d}, !- Schedule Type Limits Name
  ,                                       !- Interpolate to Timestep
  5,                                      !- Hour 1
  0,                                      !- Minute 1
  0.05,                                   !- Value Until Time 1
  7,                                      !- Hour 2
  0,                                      !- Minute 2
  0.1,                                    !- Value Until Time 2
  8,                                      !- Hour 3
  0,                                      !- Minute 3
  0.3,                                    !- Value Until Time 3
  17,                                     !- Hour 4
  0,                                      !- Minute 4
  0.9,                                    !- Value Until Time 4
  18,                                     !- Hour 5
  0,                                      !- Minute 5
  0.7,                                    !- Value Until Time 5
  20,                                     !- Hour 6
  0,                                      !- Minute 6
  0.5,                                    !- Value Until Time 6
  22,                                     !- Hour 7
  0,                                      !- Minute 7
  0.3,                                    !- Value Until Time 7
  23,                                     !- Hour 8
  0,                                      !- Minute 8
  0.1,                                    !- Value Until Time 8
  24,                                     !- Hour 9
  0,                                      !- Minute 9
  0.05;                                   !- Value Until Time 9

OS:Schedule:Rule,
  {8e4663e2-799e-490d-8147-6f70d2c5402f}, !- Handle
  Medium Office Lighting Schedule Saturday Rule, !- Name
  {125105d4-f0a4-4cd5-af0f-ac5127393236}, !- Schedule Ruleset Name
  0,                                      !- Rule Order
  {0e5254df-2b43-4d6e-8ac7-47d2ecc5354c}, !- Day Schedule Name
  ,                                       !- Apply Sunday
  ,                                       !- Apply Monday
  ,                                       !- Apply Tuesday
  ,                                       !- Apply Wednesday
  ,                                       !- Apply Thursday
  ,                                       !- Apply Friday
  Yes;                                    !- Apply Saturday

OS:Schedule:Day,
  {0e5254df-2b43-4d6e-8ac7-47d2ecc5354c}, !- Handle
  Medium Office Lighting Saturday Schedule, !- Name
  {d4988188-16af-472c-9eb4-db3478ad3f6d}, !- Schedule Type Limits Name
  ,                                       !- Interpolate to Timestep
  6,                                      !- Hour 1
  0,                                      !- Minute 1
  0.05,                                   !- Value Until Time 1
  8,                                      !- Hour 2
  0,                                      !- Minute 2
  0.1,                                    !- Value Until Time 2
  14,                                     !- Hour 3
  0,                                      !- Minute 3
  0.5,                                    !- Value Until Time 3
  17,                                     !- Hour 4
  0,                                      !- Minute 4
  0.15,                                   !- Value Until Time 4
  24,                                     !- Hour 5
  0,                                      !- Minute 5
  0.05;                                   !- Value Until Time 5

OS:Schedule:Ruleset,
  {7e2707fb-56b2-4ccc-b2a8-c2acb79799dc}, !- Handle
  Medium Office Electric Equipment Schedule, !- Name
  {d4988188-16af-472c-9eb4-db3478ad3f6d}, !- Schedule Type Limits Name
  {94633a10-6f56-4492-9c60-b21e1cdce4f1}, !- Default Day Schedule Name
  {1c272d87-c1e2-4747-8182-3a551d47cc38}, !- Summer Design Day Schedule Name
  {e833ebc8-5623-4301-8684-159c4e01e1de}; !- Winter Design Day Schedule Name

OS:Schedule:Day,
  {94633a10-6f56-4492-9c60-b21e1cdce4f1}, !- Handle
  Medium Office Electric Equipment All Other Days Schedule, !- Name
  {d4988188-16af-472c-9eb4-db3478ad3f6d}, !- Schedule Type Limits Name
  ,                                       !- Interpolate to Timestep
  24,                                     !- Hour 1
  0,                                      !- Minute 1
  0.3;                                    !- Value Until Time 1

OS:Schedule:Day,
  {d976312e-a1cc-436b-8c14-2708c41c9162}, !- Handle
  Medium Office Electric Equipment Summer Design Day Schedule, !- Name
  ,                                       !- Schedule Type Limits Name
  ,                                       !- Interpolate to Timestep
  6,                                      !- Hour 1
  0,                                      !- Minute 1
  1,                                      !- Value Until Time 1
  24,                                     !- Hour 2
  0,                                      !- Minute 2
  0;                                      !- Value Until Time 2

OS:Schedule:Day,
  {1c272d87-c1e2-4747-8182-3a551d47cc38}, !- Handle
  Medium Office Electric Equipment Summer Design Day Schedule 1, !- Name
  {d4988188-16af-472c-9eb4-db3478ad3f6d}, !- Schedule Type Limits Name
  ,                                       !- Interpolate to Timestep
  6,                                      !- Hour 1
  0,                                      !- Minute 1
  1,                                      !- Value Until Time 1
  24,                                     !- Hour 2
  0,                                      !- Minute 2
  0;                                      !- Value Until Time 2

OS:Schedule:Day,
  {6692b400-405a-488d-a229-68a399268142}, !- Handle
  Medium Office Electric Equipment Winter Design Day Schedule, !- Name
  ,                                       !- Schedule Type Limits Name
  ,                                       !- Interpolate to Timestep
  24,                                     !- Hour 1
  0,                                      !- Minute 1
  0;                                      !- Value Until Time 1

OS:Schedule:Day,
  {e833ebc8-5623-4301-8684-159c4e01e1de}, !- Handle
  Medium Office Electric Equipment Winter Design Day Schedule 1, !- Name
  {d4988188-16af-472c-9eb4-db3478ad3f6d}, !- Schedule Type Limits Name
  ,                                       !- Interpolate to Timestep
  24,                                     !- Hour 1
  0,                                      !- Minute 1
  0;                                      !- Value Until Time 1

OS:Schedule:Rule,
  {0e8735f5-35f2-4936-9666-f618e8c1cc60}, !- Handle
  Medium Office Electric Equipment Schedule Weekdays Rule, !- Name
  {7e2707fb-56b2-4ccc-b2a8-c2acb79799dc}, !- Schedule Ruleset Name
  1,                                      !- Rule Order
  {10064975-4216-4ad5-91fb-4160b210faac}, !- Day Schedule Name
  ,                                       !- Apply Sunday
  Yes,                                    !- Apply Monday
  Yes,                                    !- Apply Tuesday
  Yes,                                    !- Apply Wednesday
  Yes,                                    !- Apply Thursday
  Yes;                                    !- Apply Friday

OS:Schedule:Day,
  {10064975-4216-4ad5-91fb-4160b210faac}, !- Handle
  Medium Office Electric Equipment Weekdays Schedule, !- Name
  {d4988188-16af-472c-9eb4-db3478ad3f6d}, !- Schedule Type Limits Name
  ,                                       !- Interpolate to Timestep
  8,                                      !- Hour 1
  0,                                      !- Minute 1
  0.4,                                    !- Value Until Time 1
  12,                                     !- Hour 2
  0,                                      !- Minute 2
  0.9,                                    !- Value Until Time 2
  13,                                     !- Hour 3
  0,                                      !- Minute 3
  0.8,                                    !- Value Until Time 3
  17,                                     !- Hour 4
  0,                                      !- Minute 4
  0.9,                                    !- Value Until Time 4
  18,                                     !- Hour 5
  0,                                      !- Minute 5
  0.8,                                    !- Value Until Time 5
  20,                                     !- Hour 6
  0,                                      !- Minute 6
  0.6,                                    !- Value Until Time 6
  22,                                     !- Hour 7
  0,                                      !- Minute 7
  0.5,                                    !- Value Until Time 7
  24,                                     !- Hour 8
  0,                                      !- Minute 8
  0.4;                                    !- Value Until Time 8

OS:Schedule:Rule,
  {f1167e8a-2812-4849-96bd-353cc0b6bc32}, !- Handle
  Medium Office Electric Equipment Schedule Saturday Rule, !- Name
  {7e2707fb-56b2-4ccc-b2a8-c2acb79799dc}, !- Schedule Ruleset Name
  0,                                      !- Rule Order
  {569d75f8-bd14-436f-ae67-101d195febfb}, !- Day Schedule Name
  ,                                       !- Apply Sunday
  ,                                       !- Apply Monday
  ,                                       !- Apply Tuesday
  ,                                       !- Apply Wednesday