
OS:Version,
  {60f13f8c-f7ae-4289-a011-6ab85d33282d},  ! Handle
  0.7.5;                    ! Version Identifier

OS:AirLoopHVAC,
  {da2c0323-1d5a-491d-802a-230611158b70},  ! Handle
  1_CRAC,                   ! Name
  ,                         ! Controller List Name
  ,                         ! Availability Manager List Name
  autosize,                 ! Design Supply Air Flow Rate {m3/s}
  ,                         ! Branch List Name
  ,                         ! Connector List Name
  {ca90aaac-9faa-4576-82e9-d8ef80babbf2},  ! Supply Side Inlet Node Name
  {c81f401b-fe15-481a-b768-03b82d9f195c},  ! Demand Side Outlet Node Name
  {c554cbc0-4fe8-4d19-9598-198c9a252b6c},  ! Demand Side Inlet Node Names
  {c96c8ed0-ff1f-4dc3-9676-48a2527b500b};  ! Supply Side Outlet Node Names

OS:Node,
  {5d622ebc-309b-4b9a-9452-c27b703c2c25},  ! Handle
  1_CRAC Air Loop Inlet,    ! Name
  {ca90aaac-9faa-4576-82e9-d8ef80babbf2},  ! Inlet Port
  {3f882987-d1ae-4a96-85ed-908de045d785};  ! Outlet Port

OS:Node,
  {fb51e367-1d92-40bd-bfcd-e77847a30b8a},  ! Handle
  1_CRAC Mixed Air Outlet,  ! Name
  {6c2bf49b-8a64-4d2c-bfcd-db35adfb77f5},  ! Inlet Port
  {c96c8ed0-ff1f-4dc3-9676-48a2527b500b};  ! Outlet Port

OS:Connection,
  {ca90aaac-9faa-4576-82e9-d8ef80babbf2},  ! Handle
  {c2aaa20e-85ff-44b7-a6f7-2d84c5d63980},  ! Name
  {da2c0323-1d5a-491d-802a-230611158b70},  ! Source Object
  7,                        ! Outlet Port
  {5d622ebc-309b-4b9a-9452-c27b703c2c25},  ! Target Object
  2;                        ! Inlet Port

OS:Connection,
  {c96c8ed0-ff1f-4dc3-9676-48a2527b500b},  ! Handle
  {f13c4563-65e0-45ba-ad31-1027ecf74d6c},  ! Name
  {fb51e367-1d92-40bd-bfcd-e77847a30b8a},  ! Source Object
  3,                        ! Outlet Port
  {da2c0323-1d5a-491d-802a-230611158b70},  ! Target Object
  10;                       ! Inlet Port

OS:Node,
  {8eeba548-f1d7-47aa-acc5-5b25b2a844b3},  ! Handle
  1_CRAC Supply Path Inlet,  ! Name
  {c554cbc0-4fe8-4d19-9598-198c9a252b6c},  ! Inlet Port
  {e89ad9b4-b6b7-4f48-9dae-838ee74d4b39};  ! Outlet Port

OS:Node,
  {6d9160f5-fa54-4c24-a487-59cec30f9f17},  ! Handle
  1_CRAC Return Air Outlet,  ! Name
  {fc937041-effc-4b4d-8379-7d59665acd0a},  ! Inlet Port
  {c81f401b-fe15-481a-b768-03b82d9f195c};  ! Outlet Port

OS:Connection,
  {c554cbc0-4fe8-4d19-9598-198c9a252b6c},  ! Handle
  {9709a841-8e94-4f51-8798-16cf68b8e711},  ! Name
  {da2c0323-1d5a-491d-802a-230611158b70},  ! Source Object
  9,                        ! Outlet Port
  {8eeba548-f1d7-47aa-acc5-5b25b2a844b3},  ! Target Object
  2;                        ! Inlet Port

OS:Connection,
  {c81f401b-fe15-481a-b768-03b82d9f195c},  ! Handle
  {221b6133-0cb8-428f-bd32-6ed043b9a5aa},  ! Name
  {6d9160f5-fa54-4c24-a487-59cec30f9f17},  ! Source Object
  3,                        ! Outlet Port
  {da2c0323-1d5a-491d-802a-230611158b70},  ! Target Object
  8;                        ! Inlet Port

OS:AirLoopHVAC:ZoneSplitter,
  {c3341137-ed6f-4c4b-96b1-54d8a0477317},  ! Handle
  {9c6c973c-7f64-47bf-ad00-bf9dd11cdf6d},  ! Name
  {e89ad9b4-b6b7-4f48-9dae-838ee74d4b39},  ! Inlet Node Name
  {c60fcb18-826d-481a-a3ed-a2258ca6de32};  ! Outlet Node Name 1

OS:AirLoopHVAC:ZoneMixer,
  {d466deca-cf25-4f88-9adc-06ef821efe73},  ! Handle
  {0973587c-7b16-47a1-96a5-89677f052c08},  ! Name
  {fc937041-effc-4b4d-8379-7d59665acd0a},  ! Outlet Node Name
  {3e6bd089-a7fd-41a5-b3aa-649714967ae2};  ! Inlet Node Name 1

OS:Connection,
  {e89ad9b4-b6b7-4f48-9dae-838ee74d4b39},  ! Handle
  {7e0982bf-d875-4c6d-baea-1a10d9cc4c3f},  ! Name
  {8eeba548-f1d7-47aa-acc5-5b25b2a844b3},  ! Source Object
  3,                        ! Outlet Port
  {c3341137-ed6f-4c4b-96b1-54d8a0477317},  ! Target Object
  2;                        ! Inlet Port

OS:Connection,
  {fc937041-effc-4b4d-8379-7d59665acd0a},  ! Handle
  {8a6062f8-17dd-469e-8eb6-3513c62a2794},  ! Name
  {d466deca-cf25-4f88-9adc-06ef821efe73},  ! Source Object
  2,                        ! Outlet Port
  {6d9160f5-fa54-4c24-a487-59cec30f9f17},  ! Target Object
  2;                        ! Inlet Port

OS:Sizing:System,
  {021c3315-99ea-44ed-a2e5-610396b819e6},  ! Handle
  {da2c0323-1d5a-491d-802a-230611158b70},  ! AirLoop Name
  Sensible,                 ! Type of Load to Size On
  Autosize,                 ! Design Outdoor Air Flow Rate {m3/s}
  1,                        ! Minimum System Air Flow Ratio
  7,                        ! Preheat Design Temperature {C}
  0.008,                    ! Preheat Design Humidity Ratio {kg-H2O/kg-Air}
  11,                       ! Precool Design Temperature {C}
  0.008,                    ! Precool Design Humidity Ratio {kg-H2O/kg-Air}
  12.8,                     ! Central Cooling Design Supply Air Temperature {C}
  50,                       ! Central Heating Design Supply Air Temperature {C}
  NonCoincident,            ! Sizing Option
  No,                       ! 100% Outdoor Air in Cooling
  No,                       ! 100% Outdoor Air in Heating
  0.008,                    ! Central Cooling Design Supply Air Humidity Ratio {kg-H2O/kg-Air}
  0.008,                    ! Central Heating Design Supply Air Humidity Ratio {kg-H2O/kg-Air}
  DesignDay,                ! Cooling Design Air Flow Method
  0,                        ! Cooling Design Air Flow Rate {m3/s}
  DesignDay,                ! Heating Design Air Flow Method
  0,                        ! Heating Design Air Flow Rate {m3/s}
  ZoneSum;                  ! System Outdoor Air Method

OS:Controller:OutdoorAir,
  {d600f935-8e87-422a-9355-a7ba357f01e7},  ! Handle
  1_CRAC OA Controller,     ! Name
  ,                         ! Relief Air Outlet Node Name
  ,                         ! Return Air Node Name
  ,                         ! Mixed Air Node Name
  ,                         ! Actuator Node Name
  Autosize,                 ! Minimum Outdoor Air Flow Rate {m3/s}
  Autosize,                 ! Maximum Outdoor Air Flow Rate {m3/s}
  NoEconomizer,             ! Economizer Control Type
  ModulateFlow,             ! Economizer Control Action Type
  28,                       ! Economizer Maximum Limit Dry-Bulb Temperature {C}
  64000,                    ! Economizer Maximum Limit Enthalpy {J/kg}
  ,                         ! Economizer Maximum Limit Dewpoint Temperature {C}
  ,                         ! Electronic Enthalpy Limit Curve Name
  -100,                     ! Economizer Minimum Limit Dry-Bulb Temperature {C}
  NoLockout,                ! Lockout Type
  ProportionalMinimum,      ! Minimum Limit Type
  ,                         ! Minimum Outdoor Air Schedule Name
  ,                         ! Minimum Fraction of Outdoor Air Schedule Name
  ,                         ! Maximum Fraction of Outdoor Air Schedule Name
  ,                         ! Mechanical Ventilation Controller Name
  ,                         ! Time of Day Economizer Control Schedule Name
  No,                       ! High Humidity Control
  ,                         ! Humidistat Control Zone Name
  ,                         ! High Humidity Outdoor Air Flow Ratio
  ,                         ! Control High Indoor Humidity Based on Outdoor Humidity Ratio
  BypassWhenOAFlowGreaterThanMinimum;  ! Heat Recovery Bypass Control Type

OS:AirLoopHVAC:OutdoorAirSystem,
  {7011eac6-27e2-44f1-9ca9-351df86366c0},  ! Handle
  1_CRAC OA System,         ! Name
  {d600f935-8e87-422a-9355-a7ba357f01e7},  ! Controller Name
  ,                         ! Outdoor Air Equipment List Name
  ,                         ! Availability Manager List Name
  {6c2bf49b-8a64-4d2c-bfcd-db35adfb77f5},  ! Mixed Air Node Name
  {4eab9c8d-8218-4be9-9d65-10adcac029e6},  ! Outdoor Air Stream Node Name
  {79212406-ca5d-4845-8b3c-81dc0771c824},  ! Relief Air Stream Node Name
  {3f882987-d1ae-4a96-85ed-908de045d785};  ! Return Air Stream Node Name

OS:Node,
  {2860ec8f-557f-4a8f-a577-ff63181a3c29},  ! Handle
  1_CRAC Outside Air Inlet,  ! Name
  ,                         ! Inlet Port
  {4eab9c8d-8218-4be9-9d65-10adcac029e6};  ! Outlet Port

OS:Connection,
  {4eab9c8d-8218-4be9-9d65-10adcac029e6},  ! Handle
  {5555003d-ea69-447b-8902-1a468e7a8ff0},  ! Name
  {2860ec8f-557f-4a8f-a577-ff63181a3c29},  ! Source Object
  3,                        ! Outlet Port
  {7011eac6-27e2-44f1-9ca9-351df86366c0},  ! Target Object
  6;                        ! Inlet Port

OS:Node,
  {5f28632b-21e8-4493-a00f-0ac167c28677},  ! Handle
  1_CRAC Relief Air Outlet,  ! Name
  {79212406-ca5d-4845-8b3c-81dc0771c824},  ! Inlet Port
  ;                         ! Outlet Port

OS:Connection,
  {79212406-ca5d-4845-8b3c-81dc0771c824},  ! Handle
  {41ef788a-ea74-40e8-85a5-015f3e315498},  ! Name
  {7011eac6-27e2-44f1-9ca9-351df86366c0},  ! Source Object
  7,                        ! Outlet Port
  {5f28632b-21e8-4493-a00f-0ac167c28677},  ! Target Object
  2;                        ! Inlet Port

OS:Connection,
  {3f882987-d1ae-4a96-85ed-908de045d785},  ! Handle
  {c04845e8-d87d-49c0-8e9c-61eabc1ebb97},  ! Name
  {5d622ebc-309b-4b9a-9452-c27b703c2c25},  ! Source Object
  3,                        ! Outlet Port
  {7011eac6-27e2-44f1-9ca9-351df86366c0},  ! Target Object
  8;                        ! Inlet Port

OS:Connection,
  {6c2bf49b-8a64-4d2c-bfcd-db35adfb77f5},  ! Handle
  {ca7db8d8-b4ac-4c8b-afb5-624f077ead44},  ! Name
  {7011eac6-27e2-44f1-9ca9-351df86366c0},  ! Source Object
  5,                        ! Outlet Port
  {fb51e367-1d92-40bd-bfcd-e77847a30b8a},  ! Target Object
  2;                        ! Inlet Port

OS:Schedule:Compact,
  {61c7a893-767c-4911-a57b-3b3619ef17b8},  ! Handle
  HVACTemplate-Always 1,    ! Name
  ,                         ! Schedule Type Limits Name
  Through: 12/31,           ! Field 1
  For: AllDays,             ! Field 2
  Until: 24:00,             ! Field 3
  1;                        ! Field 4

OS:ScheduleTypeLimits,
  {aa432459-9d7b-49d8-90d1-bb3be13a8a6c},  ! Handle
  HVACTemplate Any Number;  ! Name

OS:AirTerminal:SingleDuct:Uncontrolled,
  {33072ee3-37df-4777-be8f-958ea0441807},  ! Handle
  1-Computer Air Terminal,  ! Name
  {61c7a893-767c-4911-a57b-3b3619ef17b8},  ! Availability Schedule Name
  {c60fcb18-826d-481a-a3ed-a2258ca6de32},  ! Inlet Air Node Name
  {8eb9c03a-e8bb-4710-a523-fcbd8a2edadf},  ! Zone Supply Air Node Name
  autosize;                 ! Maximum Air Flow Rate {m3/s}

OS:ThermalZone,
  {85b7ff5c-6037-49bb-a40c-9f44284e3852},  ! Handle
  1-Computer Thermal Zone,  ! Name
  1,                        ! Multiplier
  ,                         ! Ceiling Height {m}
  ,                         ! Volume {m3}
  ,                         ! Floor Area {m2}
  ,                         ! Zone Inside Convection Algorithm
  ,                         ! Zone Outside Convection Algorithm
  ,                         ! Zone Conditioning Equipment List Name
  {912a1146-991e-49b3-a570-2dbc00ba54eb},  ! Zone Air Inlet Node or NodeList Name
  {db9a66f7-d19c-4d6f-a0cd-5bb50823a2e4},  ! Zone Air Exhaust Node or NodeList Name
  {6dbb65b5-b8ea-4718-9912-9e8511bd08e9},  ! Zone Air Node Name
  {c7e5898a-b753-41cc-bf3c-52d7ad4fd683},  ! Zone Return Air Node Name
  ,                         ! Primary Daylighting Control Name
  ,                         ! Fraction of Zone Controlled by Primary Daylighting Control
  ,                         ! Secondary Daylighting Control Name
  ,                         ! Fraction of Zone Controlled by Secondary Daylighting Control
  ,                         ! Illuminance Map Name
  ,                         ! Group Rendering Name
  {21ff7d3f-5bf2-4329-97f9-b8beaa7840da},  ! Thermostat Name
  No;                       ! Use Ideal Air Loads

OS:Node,
  {300f66f4-1b63-47c9-899c-3274c7dcf206},  ! Handle
  {838ef7f7-e214-4cb5-84f1-84ce0b708067},  ! Name
  {6dbb65b5-b8ea-4718-9912-9e8511bd08e9},  ! Inlet Port
  ;                         ! Outlet Port

OS:Connection,
  {6dbb65b5-b8ea-4718-9912-9e8511bd08e9},  ! Handle
  {9932aa40-7849-4823-a088-46d0b81dde78},  ! Name
  {85b7ff5c-6037-49bb-a40c-9f44284e3852},  ! Source Object
  11,                       ! Outlet Port
  {300f66f4-1b63-47c9-899c-3274c7dcf206},  ! Target Object
  2;                        ! Inlet Port

OS:Node,
  {492c201f-8475-4dbb-8130-bf29ba8ce70d},  ! Handle
  {e15bfa4f-b3c6-491a-8739-ac097a5088a7},  ! Name
  {db9a66f7-d19c-4d6f-a0cd-5bb50823a2e4},  ! Inlet Port
  ;                         ! Outlet Port

OS:Connection,
  {db9a66f7-d19c-4d6f-a0cd-5bb50823a2e4},  ! Handle
  {8406e984-3cf3-4dc1-81e5-ef51840733df},  ! Name
  {85b7ff5c-6037-49bb-a40c-9f44284e3852},  ! Source Object
  10,                       ! Outlet Port
  {492c201f-8475-4dbb-8130-bf29ba8ce70d},  ! Target Object
  2;                        ! Inlet Port

OS:Sizing:Zone,
  {e937180a-2791-4552-aade-4bf80b3f5736},  ! Handle
  {85b7ff5c-6037-49bb-a40c-9f44284e3852},  ! Zone or ZoneList Name
  12.8,                     ! Zone Cooling Design Supply Air Temperature {C}
  50,                       ! Zone Heating Design Supply Air Temperature {C}
  0.0085,                   ! Zone Cooling Design Supply Air Humidity Ratio {kg-H2O/kg-air}
  0.008,                    ! Zone Heating Design Supply Air Humidity Ratio {kg-H2O/kg-air}
  ,                         ! Zone Heating Sizing Factor
  ,                         ! Zone Cooling Sizing Factor
  DesignDay,                ! Cooling Design Air Flow Method
  0,                        ! Cooling Design Air Flow Rate {m3/s}
  ,                         ! Cooling Minimum Air Flow per Zone Floor Area {m3/s-m2}
  ,                         ! Cooling Minimum Air Flow {m3/s}
  0,                        ! Cooling Minimum Air Flow Fraction
  DesignDay,                ! Heating Design Air Flow Method
  0,                        ! Heating Design Air Flow Rate {m3/s}
  ,                         ! Heating Maximum Air Flow per Zone Floor Area {m3/s-m2}
  ,                         ! Heating Maximum Air Flow {m3/s}
  0,                        ! Heating Maximum Air Flow Fraction
  1,                        ! Design Zone Air Distribution Effectiveness in Cooling Mode
  1;                        ! Design Zone Air Distribution Effectiveness in Heating Mode

OS:Space,
  {7b6b886a-9829-4e75-9658-5d1499759624},  ! Handle
  1-Computer,               ! Name
  ,                         ! Space Type Name
  ,                         ! Default Construction Set Name
  ,                         ! Default Schedule Set Name
  0,                        ! Direction of Relative North {deg}
  54.156828,                ! X Origin {m}
  78.342779,                ! Y Origin {m}
  0,                        ! Z Origin {m}
  ,                         ! Building Story Name
  {85b7ff5c-6037-49bb-a40c-9f44284e3852},  ! Thermal Zone Name
  ,                         ! Part of Total Floor Area
  {f4b87b0c-ab10-4502-b258-e778a69af9f4};  ! Design Specification Outdoor Air Object Name

OS:ThermostatSetpoint:DualSetpoint,
  {21ff7d3f-5bf2-4329-97f9-b8beaa7840da},  ! Handle
  {cc560242-6656-4879-a91f-2eb81a7e200a},  ! Name
  {606122f6-e5fe-4de7-ba66-dc4ea7fe424c},  ! Heating Setpoint Temperature Schedule Name
  {cb7d16ec-85a8-40af-bb4d-f5342bfa5467};  ! Cooling Setpoint Temperature Schedule Name

OS:Schedule:Compact,
  {606122f6-e5fe-4de7-ba66-dc4ea7fe424c},  ! Handle
  HVACTemplate-Always 19,   ! Name
  ,                         ! Schedule Type Limits Name
  Through: 12/31,           ! Field 1
  For: AllDays,             ! Field 2
  Until: 24:00,             ! Field 3
  19;                       ! Field 4

OS:Schedule:Compact,
  {cb7d16ec-85a8-40af-bb4d-f5342bfa5467},  ! Handle
  HVACTemplate-Always 20,   ! Name
  ,                         ! Schedule Type Limits Name
  Through: 12/31,           ! Field 1
  For: AllDays,             ! Field 2
  Until: 24:00,             ! Field 3
  20;                       ! Field 4

OS:Node,
  {14f75dbc-a5f0-4f67-b230-b9aaa7b85d5c},  ! Handle
  1-Computer Zone Equip Inlet,  ! Name
  {8eb9c03a-e8bb-4710-a523-fcbd8a2edadf},  ! Inlet Port
  {912a1146-991e-49b3-a570-2dbc00ba54eb};  ! Outlet Port

OS:Connection,
  {912a1146-991e-49b3-a570-2dbc00ba54eb},  ! Handle
  {c2137abc-ed68-44f3-8a0f-256cd32718de},  ! Name
  {14f75dbc-a5f0-4f67-b230-b9aaa7b85d5c},  ! Source Object
  3,                        ! Outlet Port
  {85b7ff5c-6037-49bb-a40c-9f44284e3852},  ! Target Object
  9;                        ! Inlet Port

OS:Node,
  {111b69cf-b3cf-4386-8738-51550ae85a3b},  ! Handle
  1-Computer Return Outlet,  ! Name
  {c7e5898a-b753-41cc-bf3c-52d7ad4fd683},  ! Inlet Port
  {3e6bd089-a7fd-41a5-b3aa-649714967ae2};  ! Outlet Port

OS:Connection,
  {c7e5898a-b753-41cc-bf3c-52d7ad4fd683},  ! Handle
  {3661014f-3f43-4fe0-80cb-862e85a5fa89},  ! Name
  {85b7ff5c-6037-49bb-a40c-9f44284e3852},  ! Source Object
  12,                       ! Outlet Port
  {111b69cf-b3cf-4386-8738-51550ae85a3b},  ! Target Object
  2;                        ! Inlet Port

OS:Connection,
  {3e6bd089-a7fd-41a5-b3aa-649714967ae2},  ! Handle
  {b4fdf329-0414-443b-9125-220bf34899ea},  ! Name
  {111b69cf-b3cf-4386-8738-51550ae85a3b},  ! Source Object
  3,                        ! Outlet Port
  {d466deca-cf25-4f88-9adc-06ef821efe73},  ! Target Object
  3;                        ! Inlet Port

OS:Connection,
  {c60fcb18-826d-481a-a3ed-a2258ca6de32},  ! Handle
  {0607db3a-588f-468e-a708-cbeeea3641c5},  ! Name
  {c3341137-ed6f-4c4b-96b1-54d8a0477317},  ! Source Object
  3,                        ! Outlet Port
  {33072ee3-37df-4777-be8f-958ea0441807},  ! Target Object
  3;                        ! Inlet Port

OS:Connection,
  {8eb9c03a-e8bb-4710-a523-fcbd8a2edadf},  ! Handle
  {07d52182-a79c-42a4-bd3f-188f5c225096},  ! Name
  {33072ee3-37df-4777-be8f-958ea0441807},  ! Source Object
  4,                        ! Outlet Port
  {14f75dbc-a5f0-4f67-b230-b9aaa7b85d5c},  ! Target Object
  2;                        ! Inlet Port

OS:AirLoopHVAC,
  {05305609-19d9-480d-931e-1d7e38c0b7ee},  ! Handle
  AHU-31,                   ! Name
  ,                         ! Controller List Name
  ,                         ! Availability Manager List Name
  autosize,                 ! Design Supply Air Flow Rate {m3/s}
  ,                         ! Branch List Name
  ,                         ! Connector List Name
  {dcd19f40-1788-467b-a6b6-6ec6235318dc},  ! Supply Side Inlet Node Name
  {1c2a4dc7-9422-4a26-a5ae-0a4d72615f99},  ! Demand Side Outlet Node Name
  {1c96416d-c3ea-4ee2-acb9-e883c7a9de34},  ! Demand Side Inlet Node Names
  {73e602c9-2223-476a-907e-344ba8597481};  ! Supply Side Outlet Node Names

OS:Node,
  {c13a9d39-eb6e-455e-98eb-e67bb76c3e2a},  ! Handle
  AHU-31 Air Loop Inlet,    ! Name
  {dcd19f40-1788-467b-a6b6-6ec6235318dc},  ! Inlet Port
  {e292cdfb-42a3-4b46-bb08-bf1cf4b04c34};  ! Outlet Port

OS:Node,
  {eeac9e64-a06f-45ae-9cc0-9b62ee7991ff},  ! Handle
  AHU-31 Mixed Air Outlet,  ! Name
  {ab09f817-6a51-4a78-8b28-a70a6b577e85},  ! Inlet Port
  {73e602c9-2223-476a-907e-344ba8597481};  ! Outlet Port

OS:Connection,
  {dcd19f40-1788-467b-a6b6-6ec6235318dc},  ! Handle
  {9240e642-d663-47d0-9dee-01355e92b9e5},  ! Name
  {05305609-19d9-480d-931e-1d7e38c0b7ee},  ! Source Object
  7,                        ! Outlet Port
  {c13a9d39-eb6e-455e-98eb-e67bb76c3e2a},  ! Target Object
  2;                        ! Inlet Port

OS:Connection,
  {73e602c9-2223-476a-907e-344ba8597481},  ! Handle
  {6bef7310-eafe-4692-9fb6-57be7026c126},  ! Name
  {eeac9e64-a06f-45ae-9cc0-9b62ee7991ff},  ! Source Object
  3,                        ! Outlet Port
  {05305609-19d9-480d-931e-1d7e38c0b7ee},  ! Target Object
  10;                       ! Inlet Port

OS:Node,
  {7434aa9c-18b4-4205-8d1a-dab8edfd3810},  ! Handle
  AHU-31 Supply Path Inlet,  ! Name
  {1c96416d-c3ea-4ee2-acb9-e883c7a9de34},  ! Inlet Port
  {1b0d9728-41ba-4938-8cd2-ec518a74c243};  ! Outlet Port

OS:Node,
  {58cd809e-3818-4ef8-88de-9e2f5f9fb4f4},  ! Handle
  AHU-31 Return Air Outlet,  ! Name
  {9d66ee2a-6e89-4fba-865f-485731c23f23},  ! Inlet Port
  {1c2a4dc7-9422-4a26-a5ae-0a4d72615f99};  ! Outlet Port

OS:Connection,
  {1c96416d-c3ea-4ee2-acb9-e883c7a9de34},  ! Handle
  {382a6023-6cb1-4c87-bf57-0b795953ac58},  ! Name
  {05305609-19d9-480d-931e-1d7e38c0b7ee},  ! Source Object
  9,                        ! Outlet Port
  {7434aa9c-18b4-4205-8d1a-dab8edfd3810},  ! Target Object
  2;                        ! Inlet Port

OS:Connection,
  {1c2a4dc7-9422-4a26-a5ae-0a4d72615f99},  ! Handle
  {7907f274-5f7f-40bc-91ef-d8440c6c147d},  ! Name
  {58cd809e-3818-4ef8-88de-9e2f5f9fb4f4},  ! Source Object
  3,                        ! Outlet Port
  {05305609-19d9-480d-931e-1d7e38c0b7ee},  ! Target Object
  8;                        ! Inlet Port

OS:AirLoopHVAC:ZoneSplitter,
  {4ee8067e-2ef3-49e8-85cc-ed1f1fab9cb0},  ! Handle
  {973b72d4-7102-49f5-8cc4-6e4c6e277365},  ! Name
  {1b0d9728-41ba-4938-8cd2-ec518a74c243},  ! Inlet Node Name
  {68c72626-758a-478c-9610-bfa215c67683},  ! Outlet Node Name 1
  {3722a846-fc1e-40b0-8573-063d71239e5d},  ! Outlet Node Name 2
  {aad082c5-6d29-4e04-bbd2-ad3988a2f71c},  ! Outlet Node Name 3
  {7d254ac6-9f0a-4bd3-a543-aec2463f264b},  ! Outlet Node Name 4
  {6787a65a-00ad-4a0b-bb4f-c3f7094a4931};  ! Outlet Node Name 5

OS:AirLoopHVAC:ZoneMixer,
  {dd82af44-7cf7-4ac0-9703-dce13ab3e169},  ! Handle
  {f33c0cb0-10e4-46cb-9241-5086123b9840},  ! Name
  {9d66ee2a-6e89-4fba-865f-485731c23f23},  ! Outlet Node Name
  {bfe6367a-a452-4af4-8c74-b2219a40c6a3},  ! Inlet Node Name 1
  {7eb7405a-d171-4e6a-a7b0-ef8e5f748c32},  ! Inlet Node Name 2
  {4c5aa1ee-d9ee-4261-b6cb-12f72f3c5255},  ! Inlet Node Name 3
  {92e6780e-e6c7-427b-95a1-3b186c018e5a},  ! Inlet Node Name 4
  {535cd76a-bcd7-436a-b15f-2e19f409b326};  ! Inlet Node Name 5

OS:Connection,
  {1b0d9728-41ba-4938-8cd2-ec518a74c243},  ! Handle
  {abfe4584-6909-4369-a8ab-e2649e51e054},  ! Name
  {7434aa9c-18b4-4205-8d1a-dab8edfd3810},  ! Source Object
  3,                        ! Outlet Port
  {4ee8067e-2ef3-49e8-85cc-ed1f1fab9cb0},  ! Target Object
  2;                        ! Inlet Port

OS:Connection,
  {9d66ee2a-6e89-4fba-865f-485731c23f23},  ! Handle
  {c21a45d8-0423-4586-9041-b04a04b02f01},  ! Name
  {dd82af44-7cf7-4ac0-9703-dce13ab3e169},  ! Source Object
  2,                        ! Outlet Port
  {58cd809e-3818-4ef8-88de-9e2f5f9fb4f4},  ! Target Object
  2;                        ! Inlet Port

OS:Sizing:System,
  {8c42b459-c236-4ad7-9639-862d41635a04},  ! Handle
  {05305609-19d9-480d-931e-1d7e38c0b7ee},  ! AirLoop Name
  Sensible,                 ! Type of Load to Size On
  Autosize,                 ! Design Outdoor Air Flow Rate {m3/s}
  0.3,                      ! Minimum System Air Flow Ratio
  7.2,                      ! Preheat Design Temperature {C}
  0.008,                    ! Preheat Design Humidity Ratio {kg-H2O/kg-Air}
  11,                       ! Precool Design Temperature {C}
  0.008,                    ! Precool Design Humidity Ratio {kg-H2O/kg-Air}
  12.8,                     ! Central Cooling Design Supply Air Temperature {C}
  10,                       ! Central Heating Design Supply Air Temperature {C}
  NonCoincident,            ! Sizing Option
  No,                       ! 100% Outdoor Air in Cooling
  No,                       ! 100% Outdoor Air in Heating
  0.008,                    ! Central Cooling Design Supply Air Humidity Ratio {kg-H2O/kg-Air}
  0.008,                    ! Central Heating Design Supply Air Humidity Ratio {kg-H2O/kg-Air}
  DesignDay,                ! Cooling Design Air Flow Method
  0,                        ! Cooling Design Air Flow Rate {m3/s}
  DesignDay,                ! Heating Design Air Flow Method
  0,                        ! Heating Design Air Flow Rate {m3/s}
  ZoneSum;                  ! System Outdoor Air Method

OS:Controller:OutdoorAir,
  {6cc394d4-4d0e-43de-bfa7-d7141cb4aace},  ! Handle
  AHU-31 OA Controller,     ! Name
  ,                         ! Relief Air Outlet Node Name
  ,                         ! Return Air Node Name
  ,                         ! Mixed Air Node Name
  ,                         ! Actuator Node Name
  Autosize,                 ! Minimum Outdoor Air Flow Rate {m3/s}
  Autosize,                 ! Maximum Outdoor Air Flow Rate {m3/s}
  DifferentialEnthalpy,     ! Economizer Control Type
  ModulateFlow,             ! Economizer Control Action Type
  28,                       ! Economizer Maximum Limit Dry-Bulb Temperature {C}
  64000,                    ! Economizer Maximum Limit Enthalpy {J/kg}
  ,                         ! Economizer Maximum Limit Dewpoint Temperature {C}
  ,                         ! Electronic Enthalpy Limit Curve Name
  -100,                     ! Economizer Minimum Limit Dry-Bulb Temperature {C}
  NoLockout,                ! Lockout Type
  ProportionalMinimum,      ! Minimum Limit Type
  ,                         ! Minimum Outdoor Air Schedule Name
  ,                         ! Minimum Fraction of Outdoor Air Schedule Name
  ,                         ! Maximum Fraction of Outdoor Air Schedule Name
  ,                         ! Mechanical Ventilation Controller Name
  ,                         ! Time of Day Economizer Control Schedule Name
  No,                       ! High Humidity Control
  ,                         ! Humidistat Control Zone Name
  ,                         ! High Humidity Outdoor Air Flow Ratio
  ,                         ! Control High Indoor Humidity Based on Outdoor Humidity Ratio
  BypassWhenOAFlowGreaterThanMinimum;  ! Heat Recovery Bypass Control Type

OS:AirLoopHVAC:OutdoorAirSystem,
  {1dd19de2-30ab-425c-9f8c-eafcdbb98191},  ! Handle
  AHU-31 OA System,         ! Name
  {6cc394d4-4d0e-43de-bfa7-d7141cb4aace},  ! Controller Name
  ,                         ! Outdoor Air Equipment List Name
  ,                         ! Availability Manager List Name
  {ab09f817-6a51-4a78-8b28-a70a6b577e85},  ! Mixed Air Node Name
  {c4ceab1a-e91c-44a8-9408-88b41423a6a5},  ! Outdoor Air Stream Node Name
  {4fb0d59b-38bb-403a-8d92-173a653ab571},  ! Relief Air Stream Node Name
  {e292cdfb-42a3-4b46-bb08-bf1cf4b04c34};  ! Return Air Stream Node Name

OS:Node,
  {1d5da3a7-bdde-45e9-8dc5-cd3bc8f1942d},  ! Handle
  AHU-31 Outside Air Inlet,  ! Name
  ,                         ! Inlet Port
  {c4ceab1a-e91c-44a8-9408-88b41423a6a5};  ! Outlet Port

OS:Connection,
  {c4ceab1a-e91c-44a8-9408-88b41423a6a5},  ! Handle
  {99de53ac-aed3-40aa-9fe1-00afac29ec61},  ! Name
  {1d5da3a7-bdde-45e9-8dc5-cd3bc8f1942d},  ! Source Object
  3,                        ! Outlet Port
  {1dd19de2-30ab-425c-9f8c-eafcdbb98191},  ! Target Object
  6;                        ! Inlet Port

OS:Node,
  {1967b845-ad5e-4a49-9263-fd7280564ba2},  ! Handle
  AHU-31 Relief Air Outlet,  ! Name
  {4fb0d59b-38bb-403a-8d92-173a653ab571},  ! Inlet Port
  ;                         ! Outlet Port

OS:Connection,
  {4fb0d59b-38bb-403a-8d92-173a653ab571},  ! Handle
  {8b2c3093-c6f4-4f0f-8f5a-7ff226d3152d},  ! Name
  {1dd19de2-30ab-425c-9f8c-eafcdbb98191},  ! Source Object
  7,                        ! Outlet Port
  {1967b845-ad5e-4a49-9263-fd7280564ba2},  ! Target Object
  2;                        ! Inlet Port

OS:Connection,
  {e292cdfb-42a3-4b46-bb08-bf1cf4b04c34},  ! Handle
  {3fd8a40c-733c-48b7-8491-00019f64ab31},  ! Name
  {c13a9d39-eb6e-455e-98eb-e67bb76c3e2a},  ! Source Object
  3,                        ! Outlet Port
  {1dd19de2-30ab-425c-9f8c-eafcdbb98191},  ! Target Object
  8;                        ! Inlet Port

OS:Connection,
  {ab09f817-6a51-4a78-8b28-a70a6b577e85},  ! Handle
  {281d0d26-0760-40a7-afe1-c656e75f8b97},  ! Name
  {1dd19de2-30ab-425c-9f8c-eafcdbb98191},  ! Source Object
  5,                        ! Outlet Port
  {eeac9e64-a06f-45ae-9cc0-9b62ee7991ff},  ! Target Object
  2;                        ! Inlet Port

OS:ThermalZone,
  {76d644d0-ae74-4c19-b1c1-ee0261c9b17e},  ! Handle
  3-W Corridor Thermal Zone,  ! Name
  1,                        ! Multiplier
  ,                         ! Ceiling Height {m}
  ,                         ! Volume {m3}
  ,                         ! Floor Area {m2}
  ,                         ! Zone Inside Convection Algorithm
  ,                         ! Zone Outside Convection Algorithm
  ,                         ! Zone Conditioning Equipment List Name
  {60d80867-9f77-403a-a081-606898ea5c32},  ! Zone Air Inlet Node or NodeList Name
  {bb15c285-425f-478e-bbb6-814fa1dd7b4a},  ! Zone Air Exhaust Node or NodeList Name
  {b942a0ad-7cf7-496d-a11e-ebf90a495ae9},  ! Zone Air Node Name
  {24b91859-1725-44c4-9c22-99b1dcd37a6c},  ! Zone Return Air Node Name
  ,                         ! Primary Daylighting Control Name
  ,                         ! Fraction of Zone Controlled by Primary Daylighting Control
  ,                         ! Secondary Daylighting Control Name
  ,                         ! Fraction of Zone Controlled by Secondary Daylighting Control
  ,                         ! Illuminance Map Name
  ,                         ! Group Rendering Name
  {3641db88-b683-4c22-94a7-2a132d74799c},  ! Thermostat Name
  No;                       ! Use Ideal Air Loads

OS:Node,
  {835329d2-2dbb-4dae-8b19-4a98559687af},  ! Handle
  {05fa4903-f58b-4ab5-8b45-32eb1512c020},  ! Name
  {b942a0ad-7cf7-496d-a11e-ebf90a495ae9},  ! Inlet Port
  ;                         ! Outlet Port

OS:Connection,
  {b942a0ad-7cf7-496d-a11e-ebf90a495ae9},  ! Handle
  {1524d7e8-bf6e-45e8-9935-c2b5a725359b},  ! Name
  {76d644d0-ae74-4c19-b1c1-ee0261c9b17e},  ! Source Object
  11,                       ! Outlet Port