
OS:Version,
  {856e5f2a-f251-4723-9541-d4a34bf25207}, !- Handle
  2.9.0;                                  !- Version Identifier

OS:BuildingStory,
  {6f20b897-7006-444d-bdba-15252b7f3202}, !- Handle
  Story 1,                                !- Name
  0,                                      !- Nominal Z Coordinate {m}
  4,                                      !- Nominal Floor to Floor Height {m}
  ,                                       !- Default Construction Set Name
  ,                                       !- Default Schedule Set Name
  ;                                       !- Group Rendering Name

OS:Space,
  {510610c0-d5e2-4018-a678-38b6eb3c54b1}, !- Handle
  Story 1 Core Space,                     !- Name
  ,                                       !- Space Type Name
  ,                                       !- Default Construction Set Name
  ,                                       !- Default Schedule Set Name
  -0,                                     !- Direction of Relative North {deg}
  0,                                      !- X Origin {m}
  0,                                      !- Y Origin {m}
  0,                                      !- Z Origin {m}
  {6f20b897-7006-444d-bdba-15252b7f3202}, !- Building Story Name
  {1ca5d2ef-65aa-43d7-905b-fd83b910e46a}; !- Thermal Zone Name

OS:Surface,
  {28d88d18-71f7-43e2-aca2-3da800b3c102}, !- Handle
  Surface 1,                              !- Name
  Floor,                                  !- Surface Type
  ,                                       !- Construction Name
  {510610c0-d5e2-4018-a678-38b6eb3c54b1}, !- Space Name
  Ground,                                 !- Outside Boundary Condition
  ,                                       !- Outside Boundary Condition Object
  NoSun,                                  !- Sun Exposure
  NoWind,                                 !- Wind Exposure
  ,                                       !- View Factor to Ground
  ,                                       !- Number of Vertices
  0, 0, 0,                                !- X,Y,Z Vertex 1 {m}
  0, 50, 0,                               !- X,Y,Z Vertex 2 {m}
  100, 50, 0,                             !- X,Y,Z Vertex 3 {m}
  100, 0, 0;                              !- X,Y,Z Vertex 4 {m}

OS:Surface,
  {8cefa392-bc27-4408-98f7-0d57988ead21}, !- Handle
  Surface 2,                              !- Name
  Wall,                                   !- Surface Type
  ,                                       !- Construction Name
  {510610c0-d5e2-4018-a678-38b6eb3c54b1}, !- Space Name
  Outdoors,                               !- Outside Boundary Condition
  ,                                       !- Outside Boundary Condition Object
  SunExposed,                             !- Sun Exposure
  WindExposed,                            !- Wind Exposure
  ,                                       !- View Factor to Ground
  ,                                       !- Number of Vertices
  0, 50, 4,                               !- X,Y,Z Vertex 1 {m}
  0, 50, 0,                               !- X,Y,Z Vertex 2 {m}
  0, 0, 0,                                !- X,Y,Z Vertex 3 {m}
  0, 0, 4;                                !- X,Y,Z Vertex 4 {m}

OS:Surface,
  {756ad6b5-ed91-4d6a-8350-6ad6041eadb4}, !- Handle
  Surface 3,                              !- Name
  Wall,                                   !- Surface Type
  ,                                       !- Construction Name
  {510610c0-d5e2-4018-a678-38b6eb3c54b1}, !- Space Name
  Outdoors,                               !- Outside Boundary Condition
  ,                                       !- Outside Boundary Condition Object
  SunExposed,                             !- Sun Exposure
  WindExposed,                            !- Wind Exposure
  ,                                       !- View Factor to Ground
  ,                                       !- Number of Vertices
  100, 50, 4,                             !- X,Y,Z Vertex 1 {m}
  100, 50, 0,                             !- X,Y,Z Vertex 2 {m}
  0, 50, 0,                               !- X,Y,Z Vertex 3 {m}
  0, 50, 4;                               !- X,Y,Z Vertex 4 {m}

OS:Surface,
  {cad556cb-27aa-470c-86f6-f57ec00a27ce}, !- Handle
  Surface 4,                              !- Name
  Wall,                                   !- Surface Type
  ,                                       !- Construction Name
  {510610c0-d5e2-4018-a678-38b6eb3c54b1}, !- Space Name
  Outdoors,                               !- Outside Boundary Condition
  ,                                       !- Outside Boundary Condition Object
  SunExposed,                             !- Sun Exposure
  WindExposed,                            !- Wind Exposure
  ,                                       !- View Factor to Ground
  ,                                       !- Number of Vertices
  100, 0, 4,                              !- X,Y,Z Vertex 1 {m}
  100, 0, 0,                              !- X,Y,Z Vertex 2 {m}
  100, 50, 0,                             !- X,Y,Z Vertex 3 {m}
  100, 50, 4;                             !- X,Y,Z Vertex 4 {m}

OS:Surface,
  {afe49813-08dd-4b3f-ba97-408e15611eb8}, !- Handle
  Surface 5,                              !- Name
  Wall,                                   !- Surface Type
  ,                                       !- Construction Name
  {510610c0-d5e2-4018-a678-38b6eb3c54b1}, !- Space Name
  Outdoors,                               !- Outside Boundary Condition
  ,                                       !- Outside Boundary Condition Object
  SunExposed,                             !- Sun Exposure
  WindExposed,                            !- Wind Exposure
  ,                                       !- View Factor to Ground
  ,                                       !- Number of Vertices
  0, 0, 4,                                !- X,Y,Z Vertex 1 {m}
  0, 0, 0,                                !- X,Y,Z Vertex 2 {m}
  100, 0, 0,                              !- X,Y,Z Vertex 3 {m}
  100, 0, 4;                              !- X,Y,Z Vertex 4 {m}

OS:Surface,
  {49e8dc92-f628-4952-a5e0-004df4c4f3ee}, !- Handle
  Surface 6,                              !- Name
  RoofCeiling,                            !- Surface Type
  ,                                       !- Construction Name
  {510610c0-d5e2-4018-a678-38b6eb3c54b1}, !- Space Name
  Outdoors,                               !- Outside Boundary Condition
  ,                                       !- Outside Boundary Condition Object
  SunExposed,                             !- Sun Exposure
  WindExposed,                            !- Wind Exposure
  ,                                       !- View Factor to Ground
  ,                                       !- Number of Vertices
  100, 0, 4,                              !- X,Y,Z Vertex 1 {m}
  100, 50, 4,                             !- X,Y,Z Vertex 2 {m}
  0, 50, 4,                               !- X,Y,Z Vertex 3 {m}
  0, 0, 4;                                !- X,Y,Z Vertex 4 {m}

OS:ThermalZone,
  {1ca5d2ef-65aa-43d7-905b-fd83b910e46a}, !- Handle
  Story 1 Core Thermal Zone,              !- Name
  ,                                       !- Multiplier
  ,                                       !- Ceiling Height {m}
  ,                                       !- Volume {m3}
  ,                                       !- Floor Area {m2}
  ,                                       !- Zone Inside Convection Algorithm
  ,                                       !- Zone Outside Convection Algorithm
  ,                                       !- Zone Conditioning Equipment List Name
  {66caa1b2-f352-47f7-888e-413c35a8003a}, !- Zone Air Inlet Port List
  {0e683691-0586-49b0-af77-ccfebf0d973b}, !- Zone Air Exhaust Port List
  {ae297cd0-77ee-4bc1-814f-06701a7dc245}, !- Zone Air Node Name
  {f31b7437-7a1c-456c-80a3-c05b59b7307b}, !- Zone Return Air Port List
  ,                                       !- Primary Daylighting Control Name
  ,                                       !- Fraction of Zone Controlled by Primary Daylighting Control
  ,                                       !- Secondary Daylighting Control Name
  ,                                       !- Fraction of Zone Controlled by Secondary Daylighting Control
  ,                                       !- Illuminance Map Name
  ,                                       !- Group Rendering Name
  {01ebb1c3-7aa2-440f-a39a-cee18426bf7b}, !- Thermostat Name
  No;                                     !- Use Ideal Air Loads

OS:Node,
  {8ae93760-f11f-4ee7-be81-c18d844996f6}, !- Handle
  Node 1,                                 !- Name
  {ae297cd0-77ee-4bc1-814f-06701a7dc245}, !- Inlet Port
  ;                                       !- Outlet Port

OS:Connection,
  {ae297cd0-77ee-4bc1-814f-06701a7dc245}, !- Handle
  {32a5e321-aa2c-4750-9675-e346a21ae1d5}, !- Name
  {1ca5d2ef-65aa-43d7-905b-fd83b910e46a}, !- Source Object
  11,                                     !- Outlet Port
  {8ae93760-f11f-4ee7-be81-c18d844996f6}, !- Target Object
  2;                                      !- Inlet Port

OS:PortList,
  {66caa1b2-f352-47f7-888e-413c35a8003a}, !- Handle
  {26f7d91c-54bc-4553-aabd-fb2cd4b9a8ba}, !- Name
  {1ca5d2ef-65aa-43d7-905b-fd83b910e46a}, !- HVAC Component
  {d6b24b3a-d7de-4d9a-995f-d03624c8ab86}; !- Port 1

OS:PortList,
  {0e683691-0586-49b0-af77-ccfebf0d973b}, !- Handle
  {9302b0be-dece-48f1-b83e-7cbdb6d199c9}, !- Name
  {1ca5d2ef-65aa-43d7-905b-fd83b910e46a}; !- HVAC Component

OS:PortList,
  {f31b7437-7a1c-456c-80a3-c05b59b7307b}, !- Handle
  {6958bd70-61ea-497a-8774-b47bd5e70748}, !- Name
  {1ca5d2ef-65aa-43d7-905b-fd83b910e46a}, !- HVAC Component
  {d0ff1716-cfdd-4d35-933e-b294dc50a78a}; !- Port 1

OS:Sizing:Zone,
  {d696c615-2166-414f-9175-e721a4843b77}, !- Handle
  {1ca5d2ef-65aa-43d7-905b-fd83b910e46a}, !- Zone or ZoneList Name
  SupplyAirTemperature,                   !- Zone Cooling Design Supply Air Temperature Input Method
  14,                                     !- Zone Cooling Design Supply Air Temperature {C}
  11.11,                                  !- Zone Cooling Design Supply Air Temperature Difference {deltaC}
  SupplyAirTemperature,                   !- Zone Heating Design Supply Air Temperature Input Method
  40,                                     !- Zone Heating Design Supply Air Temperature {C}
  11.11,                                  !- Zone Heating Design Supply Air Temperature Difference {deltaC}
  0.0085,                                 !- Zone Cooling Design Supply Air Humidity Ratio {kg-H2O/kg-air}
  0.008,                                  !- Zone Heating Design Supply Air Humidity Ratio {kg-H2O/kg-air}
  ,                                       !- Zone Heating Sizing Factor
  ,                                       !- Zone Cooling Sizing Factor
  DesignDay,                              !- Cooling Design Air Flow Method
  ,                                       !- Cooling Design Air Flow Rate {m3/s}
  ,                                       !- Cooling Minimum Air Flow per Zone Floor Area {m3/s-m2}
  ,                                       !- Cooling Minimum Air Flow {m3/s}
  ,                                       !- Cooling Minimum Air Flow Fraction
  DesignDay,                              !- Heating Design Air Flow Method
  ,                                       !- Heating Design Air Flow Rate {m3/s}
  ,                                       !- Heating Maximum Air Flow per Zone Floor Area {m3/s-m2}
  ,                                       !- Heating Maximum Air Flow {m3/s}
  ,                                       !- Heating Maximum Air Flow Fraction
  ,                                       !- Design Zone Air Distribution Effectiveness in Cooling Mode
  ,                                       !- Design Zone Air Distribution Effectiveness in Heating Mode
  No,                                     !- Account for Dedicated Outdoor Air System
  NeutralSupplyAir,                       !- Dedicated Outdoor Air System Control Strategy
  autosize,                               !- Dedicated Outdoor Air Low Setpoint Temperature for Design {C}
  autosize;                               !- Dedicated Outdoor Air High Setpoint Temperature for Design {C}

OS:ZoneHVAC:EquipmentList,
  {3c4b4453-7d6a-4ff2-b41f-c633c523d273}, !- Handle
  Zone HVAC Equipment List 1,             !- Name
  {1ca5d2ef-65aa-43d7-905b-fd83b910e46a}, !- Thermal Zone
  ,                                       !- Load Distribution Scheme
  {10b115de-c106-4c85-accf-4f348eddc864}, !- Zone Equipment 1
  1,                                      !- Zone Equipment Cooling Sequence 1
  1,                                      !- Zone Equipment Heating or No-Load Sequence 1
  ,                                       !- Zone Equipment Sequential Cooling Fraction Schedule Name 1
  ;                                       !- Zone Equipment Sequential Heating Fraction Schedule Name 1

OS:SubSurface,
  {836e8613-c858-4db3-b359-6989507c8e2d}, !- Handle
  Sub Surface 1,                          !- Name
  FixedWindow,                            !- Sub Surface Type
  ,                                       !- Construction Name
  {cad556cb-27aa-470c-86f6-f57ec00a27ce}, !- Surface Name
  ,                                       !- Outside Boundary Condition Object
  ,                                       !- View Factor to Ground
  ,                                       !- Shading Control Name
  ,                                       !- Frame and Divider Name
  ,                                       !- Multiplier
  ,                                       !- Number of Vertices
  100, 0.0254, 2.60162725328934,          !- X,Y,Z Vertex 1 {m}
  100, 0.0254, 1,                         !- X,Y,Z Vertex 2 {m}
  100, 49.9746, 1,                        !- X,Y,Z Vertex 3 {m}
  100, 49.9746, 2.60162725328934;         !- X,Y,Z Vertex 4 {m}

OS:SubSurface,
  {85e3ba71-278c-45f2-9a07-e36fcec502fa}, !- Handle
  Sub Surface 2,                          !- Name
  FixedWindow,                            !- Sub Surface Type
  ,                                       !- Construction Name
  {756ad6b5-ed91-4d6a-8350-6ad6041eadb4}, !- Surface Name
  ,                                       !- Outside Boundary Condition Object
  ,                                       !- View Factor to Ground
  ,                                       !- Shading Control Name
  ,                                       !- Frame and Divider Name
  ,                                       !- Multiplier
  ,                                       !- Number of Vertices
  99.9746, 50, 2.60081321311226,          !- X,Y,Z Vertex 1 {m}
  99.9746, 50, 1,                         !- X,Y,Z Vertex 2 {m}
  0.0253999999999905, 50, 1,              !- X,Y,Z Vertex 3 {m}
  0.0253999999999905, 50, 2.60081321311226; !- X,Y,Z Vertex 4 {m}

OS:SubSurface,
  {7ae835a5-9958-41d7-acfa-373643503604}, !- Handle
  Sub Surface 3,                          !- Name
  FixedWindow,                            !- Sub Surface Type
  ,                                       !- Construction Name
  {afe49813-08dd-4b3f-ba97-408e15611eb8}, !- Surface Name
  ,                                       !- Outside Boundary Condition Object
  ,                                       !- View Factor to Ground
  ,                                       !- Shading Control Name
  ,                                       !- Frame and Divider Name
  ,                                       !- Multiplier
  ,                                       !- Number of Vertices
  0.0254, 0, 2.60081321311226,            !- X,Y,Z Vertex 1 {m}
  0.0254, 0, 1,                           !- X,Y,Z Vertex 2 {m}
  99.9746, 0, 1,                          !- X,Y,Z Vertex 3 {m}
  99.9746, 0, 2.60081321311226;           !- X,Y,Z Vertex 4 {m}

OS:SubSurface,
  {f77e9417-7f34-4aba-852b-b1dfebf314d7}, !- Handle
  Sub Surface 4,                          !- Name
  FixedWindow,                            !- Sub Surface Type
  ,                                       !- Construction Name
  {8cefa392-bc27-4408-98f7-0d57988ead21}, !- Surface Name
  ,                                       !- Outside Boundary Condition Object
  ,                                       !- View Factor to Ground
  ,                                       !- Shading Control Name
  ,                                       !- Frame and Divider Name
  ,                                       !- Multiplier
  ,                                       !- Number of Vertices
  0, 49.9746, 2.60162725328934,           !- X,Y,Z Vertex 1 {m}
  0, 49.9746, 1,                          !- X,Y,Z Vertex 2 {m}
  0, 0.0254000000000048, 1,               !- X,Y,Z Vertex 3 {m}
  0, 0.0254000000000048, 2.60162725328934; !- X,Y,Z Vertex 4 {m}

OS:Schedule:Ruleset,
  {42e5662b-c28d-42a7-87de-15d20d7e4f3b}, !- Handle
  Cooling Sch,                            !- Name
  {1f873011-a25f-4e62-ade8-ea43804ffa89}, !- Schedule Type Limits Name
  {75c09690-a340-4d7f-9134-d712ee3b822e}; !- Default Day Schedule Name

OS:Schedule:Day,
  {75c09690-a340-4d7f-9134-d712ee3b822e}, !- Handle
  Cooling Sch Default,                    !- Name
  {1f873011-a25f-4e62-ade8-ea43804ffa89}, !- Schedule Type Limits Name
  ,                                       !- Interpolate to Timestep
  24,                                     !- Hour 1
  0,                                      !- Minute 1
  28;                                     !- Value Until Time 1

OS:Schedule:Ruleset,
  {0ba94e21-4d55-4dde-9e93-853124e2ab6a}, !- Handle
  Heating Sch,                            !- Name
  {1f873011-a25f-4e62-ade8-ea43804ffa89}, !- Schedule Type Limits Name
  {d626287d-8cd5-4d43-a477-385bad7346ad}; !- Default Day Schedule Name

OS:Schedule:Day,
  {d626287d-8cd5-4d43-a477-385bad7346ad}, !- Handle
  Heating Sch Default,                    !- Name
  {1f873011-a25f-4e62-ade8-ea43804ffa89}, !- Schedule Type Limits Name
  ,                                       !- Interpolate to Timestep
  24,                                     !- Hour 1
  0,                                      !- Minute 1
  24;                                     !- Value Until Time 1

OS:ThermostatSetpoint:DualSetpoint,
  {01ebb1c3-7aa2-440f-a39a-cee18426bf7b}, !- Handle
  Thermostat Setpoint Dual Setpoint 1,    !- Name
  {0ba94e21-4d55-4dde-9e93-853124e2ab6a}, !- Heating Setpoint Temperature Schedule Name
  {42e5662b-c28d-42a7-87de-15d20d7e4f3b}; !- Cooling Setpoint Temperature Schedule Name

OS:ScheduleTypeLimits,
  {1f873011-a25f-4e62-ade8-ea43804ffa89}, !- Handle
  Temperature,                            !- Name
  ,                                       !- Lower Limit Value
  ,                                       !- Upper Limit Value
  Continuous,                             !- Numeric Type
  Temperature;                            !- Unit Type

OS:DefaultConstructionSet,
  {2bdd8397-292d-4c16-81b5-1c3f8f82912e}, ! Handle
  ASHRAE_189.1-2009_ClimateZone 4-5 (mdoff)_ConstSet, ! Name
  {cdf1ae2d-98bc-4fd9-8cad-9a93bb47cd47}, ! Default Exterior Surface Constructions Name
  {bd922d17-d389-4a39-9e94-c429dd615eb9}, ! Default Interior Surface Constructions Name
  {5a32f3e4-a554-41c6-b873-c3b19758cc68}, ! Default Ground Contact Surface Constructions Name
  {201ded89-1e88-4969-8036-aa2610b6b3d4}, ! Default Exterior SubSurface Constructions Name
  {6541f4dc-524a-4498-ad06-6cfe24ca413b}, ! Default Interior SubSurface Constructions Name
  {e96b82cb-8e6d-4e88-a8e0-e7278218687c}, ! Interior Partition Construction Name
  ,                                       ! Space Shading Construction Name
  ,                                       ! Building Shading Construction Name
  ,                                       ! Site Shading Construction Name
  ;                                       !- Adiabatic Surface Construction Name

OS:DefaultSurfaceConstructions,
  {cdf1ae2d-98bc-4fd9-8cad-9a93bb47cd47}, ! Handle
  ASHRAE_189.1-2009_ClimateZone 4-5 (mdoff)_Exterior_DefSurfCons, ! Name
  {9f74c48f-e6dd-412c-a0f9-95feb144eea8}, ! Floor Construction Name
  {bc4ecb7c-4cde-481e-93a6-9ca415ca413e}, ! Wall Construction Name
  {bfec5e93-e83b-4bc9-aba6-08311506a037}; ! Roof Ceiling Construction Name

OS:DefaultSurfaceConstructions,
  {bd922d17-d389-4a39-9e94-c429dd615eb9}, ! Handle
  000_Interior_DefSurfCons,               ! Name
  {92ee3502-9c28-4fc3-96a3-75f88f115c60}, ! Floor Construction Name
  {58f4092f-4d27-41d2-9497-47a68babb9a4}, ! Wall Construction Name
  {389e83c9-dfc2-4520-b67d-c6c2c7f5b8b2}; ! Roof Ceiling Construction Name

OS:DefaultSurfaceConstructions,
  {5a32f3e4-a554-41c6-b873-c3b19758cc68}, ! Handle
  000_Ground_DefSurfCons,                 ! Name
  {9f74c48f-e6dd-412c-a0f9-95feb144eea8}, ! Floor Construction Name
  {9f74c48f-e6dd-412c-a0f9-95feb144eea8}, ! Wall Construction Name
  {9f74c48f-e6dd-412c-a0f9-95feb144eea8}; ! Roof Ceiling Construction Name

OS:DefaultSubSurfaceConstructions,
  {201ded89-1e88-4969-8036-aa2610b6b3d4}, ! Handle
  ASHRAE_189.1-2009_ClimateZone 4-5 (mdoff)_Exterior_DefSubCons, ! Name
  {e5d95e26-edcc-4410-bf47-e0457ff8552d}, ! Fixed Window Construction Name
  {e5d95e26-edcc-4410-bf47-e0457ff8552d}, ! Operable Window Construction Name
  {ff7e8204-73c7-4c6c-9492-c6d4e4a3121d}, ! Door Construction Name
  {f66bceca-4aed-41bf-80aa-3d52b0539747}, ! Glass Door Construction Name
  ,                                       ! Overhead Door Construction Name
  {f66bceca-4aed-41bf-80aa-3d52b0539747}, ! Skylight Construction Name
  {b5f52673-bc82-40f3-b348-528ec414b63c}, ! Tubular Daylight Dome Construction Name
  {b5f52673-bc82-40f3-b348-528ec414b63c}; ! Tubular Daylight Diffuser Construction Name

OS:DefaultSubSurfaceConstructions,
  {6541f4dc-524a-4498-ad06-6cfe24ca413b}, ! Handle
  000_Interior_DefSubCons,                ! Name
  {b5f52673-bc82-40f3-b348-528ec414b63c}, ! Fixed Window Construction Name
  {b5f52673-bc82-40f3-b348-528ec414b63c}, ! Operable Window Construction Name
  {26ea893b-b145-4f44-b20b-29c29f0f8ebd}, ! Door Construction Name
  {f66bceca-4aed-41bf-80aa-3d52b0539747}, ! Glass Door Construction Name
  ,                                       ! Overhead Door Construction Name
  {f66bceca-4aed-41bf-80aa-3d52b0539747}, ! Skylight Construction Name
  {b5f52673-bc82-40f3-b348-528ec414b63c}, ! Tubular Daylight Dome Construction Name
  {b5f52673-bc82-40f3-b348-528ec414b63c}; ! Tubular Daylight Diffuser Construction Name

OS:Construction,
  {e96b82cb-8e6d-4e88-a8e0-e7278218687c}, ! Handle
  000_Interior Partition,                 ! Name
  ,                                       ! Surface Rendering Name
  {0ccad154-5c2e-4875-b026-294e5670aa30}; ! Layer 1

OS:Construction,
  {9f74c48f-e6dd-412c-a0f9-95feb144eea8}, ! Handle
  000_ExtSlabCarpet_4in_ClimateZone 1-8,  ! Name
  ,                                       ! Surface Rendering Name
  {8cb358a7-08fe-48f1-bd97-c59e9c2eaa03}, ! Layer 1
  {f22ff23b-2eaa-414c-82c1-020717036c42}; ! Layer 2

OS:Construction,
  {bc4ecb7c-4cde-481e-93a6-9ca415ca413e}, ! Handle
  ASHRAE_189.1-2009_ExtWall_SteelFrame_ClimateZone 4-8, ! Name
  ,                                       ! Surface Rendering Name
  {e6a2ed88-7347-4119-9e63-b06cc1787613}, ! Layer 1
  {a1129ef8-7aac-4e33-bb83-afddd637570f}, ! Layer 2
  {b8407b9c-11f6-45d5-8f32-b084dce907b9}; ! Layer 3

OS:Construction,
  {bfec5e93-e83b-4bc9-aba6-08311506a037}, ! Handle
  ASHRAE_189.1-2009_ExtRoof_IEAD_ClimateZone 2-5, ! Name
  ,                                       ! Surface Rendering Name
  {0f0fc20f-d630-40be-abb6-f5ac17cec8b9}, ! Layer 1
  {274b3083-38c6-4ade-894a-0ac5933ca0a0}, ! Layer 2
  {5c918c60-a482-4ca4-9d2a-246fdf21dcee}; ! Layer 3

OS:Construction,
  {92ee3502-9c28-4fc3-96a3-75f88f115c60}, ! Handle
  000_Interior Floor,                     ! Name
  ,                                       ! Surface Rendering Name
  {41975f08-1959-41e3-be6e-2bed2c0bd645}, ! Layer 1
  {de23ba95-8a13-4e47-ac60-146255a60b0b}, ! Layer 2
  {3a8928c8-b19a-4a35-be3f-2a1d1a5eb840}; ! Layer 3

OS:Construction,
  {58f4092f-4d27-41d2-9497-47a68babb9a4}, ! Handle
  000_Interior Wall,                      ! Name
  ,                                       ! Surface Rendering Name
  {2b5ec4e9-be8d-48d2-9ff5-d6e37ba91796}, ! Layer 1
  {8ebf0538-6d92-4127-a524-a8bb48e18309}, ! Layer 2
  {2b5ec4e9-be8d-48d2-9ff5-d6e37ba91796}; ! Layer 3

OS:Construction,
  {389e83c9-dfc2-4520-b67d-c6c2c7f5b8b2}, ! Handle
  000_Interior Ceiling,                   ! Name
  ,                                       ! Surface Rendering Name
  {3a8928c8-b19a-4a35-be3f-2a1d1a5eb840}, ! Layer 1
  {de23ba95-8a13-4e47-ac60-146255a60b0b}, ! Layer 2
  {41975f08-1959-41e3-be6e-2bed2c0bd645}; ! Layer 3

OS:Construction,
  {e5d95e26-edcc-4410-bf47-e0457ff8552d}, ! Handle
  ASHRAE_189.1-2009_ExtWindow_ClimateZone 4-5, ! Name
  ,                                       ! Surface Rendering Name
  {299bb599-8321-4140-be7c-4953e7673383}; ! Layer 1

OS:Construction,
  {ff7e8204-73c7-4c6c-9492-c6d4e4a3121d}, ! Handle
  000_Exterior Door,                      ! Name
  ,                                       ! Surface Rendering Name
  {e87fec8f-31cf-4e9a-bc67-129d056d4569}, ! Layer 1
  {4f8d9eac-a132-4607-a876-767952e5db26}; ! Layer 2

OS:Construction,
  {f66bceca-4aed-41bf-80aa-3d52b0539747}, ! Handle
  000_Exterior Window,                    ! Name
  ,                                       ! Surface Rendering Name
  {10b3a4e2-5335-4d1d-b07d-bc0f73b69f45}, ! Layer 1
  {a0f466db-491e-40ab-acb8-d661b5d37df2}, ! Layer 2
  {10b3a4e2-5335-4d1d-b07d-bc0f73b69f45}; ! Layer 3

OS:Construction,
  {b5f52673-bc82-40f3-b348-528ec414b63c}, ! Handle
  000_Interior Window,                    ! Name
  ,                                       ! Surface Rendering Name
  {10b3a4e2-5335-4d1d-b07d-bc0f73b69f45}; ! Layer 1

OS:Construction,
  {26ea893b-b145-4f44-b20b-29c29f0f8ebd}, ! Handle
  000_Interior Door,                      ! Name
  ,                                       ! Surface Rendering Name
  {0ccad154-5c2e-4875-b026-294e5670aa30}; ! Layer 1

OS:Material,
  {0ccad154-5c2e-4875-b026-294e5670aa30}, ! Handle
  000_G05 25mm wood,                      ! Name
  MediumSmooth,                           ! Roughness
  0.025399999999999999,                   ! Thickness
  0.14999999999999999,                    ! Conductivity
  608,                                    ! Density
  1630;                                   ! Specific Heat

OS:Material,
  {8cb358a7-08fe-48f1-bd97-c59e9c2eaa03}, ! Handle
  MAT-CC05 4 HW CONCRETE,                 ! Name
  Rough,                                  ! Roughness
  0.1016,                                 ! Thickness
  1.3109999999999999,                     ! Conductivity
  2240,                                   ! Density
  836.79999999999995,                     ! Specific Heat
  0.90000000000000002,                    ! Thermal Absorptance
  0.69999999999999996,                    ! Solar Absorptance
  0.69999999999999996;                    ! Visible Absorptance

OS:Material:NoMass,
  {f22ff23b-2eaa-414c-82c1-020717036c42}, ! Handle
  CP02 CARPET PAD,                        ! Name
  VeryRough,                              ! Roughness
  0.2165,                                 ! Thermal Resistance
  0.90000000000000002,                    ! Thermal Absorptance
  0.69999999999999996,                    ! Solar Absorptance
  0.80000000000000004;                    ! Visible Absorptance

OS:Material:NoMass,
  {e6a2ed88-7347-4119-9e63-b06cc1787613}, ! Handle
  MAT-SHEATH,                             ! Name
  Rough,                                  ! Roughness
  0.36259999999999998,                    ! Thermal Resistance
  0.90000000000000002,                    ! Thermal Absorptance
  0.69999999999999996,                    ! Solar Absorptance
  0.69999999999999996;                    ! Visible Absorptance

OS:Material,
  {a1129ef8-7aac-4e33-bb83-afddd637570f}, ! Handle
  Wall Insulation [39],                   ! Name
  MediumRough,                            ! Roughness
  0.11840000000000001,                    ! Thickness
  0.044999999999999998,                   ! Conductivity
  265,                                    ! Density
  836.79999999999995,                     ! Specific Heat
  0.90000000000000002,                    ! Thermal Absorptance
  0.69999999999999996,                    ! Solar Absorptance
  0.69999999999999996;                    ! Visible Absorptance

OS:Material,
  {b8407b9c-11f6-45d5-8f32-b084dce907b9}, ! Handle
  1/2IN Gypsum,                           ! Name
  Smooth,                                 ! Roughness
  0.012699999999999999,                   ! Thickness
  0.16,                                   ! Conductivity
  784.89999999999998,                     ! Density
  830,                                    ! Specific Heat
  0.90000000000000002,                    ! Thermal Absorptance
  0.92000000000000004,                    ! Solar Absorptance
  0.92000000000000004;                    ! Visible Absorptance

OS:Material,
  {0f0fc20f-d630-40be-abb6-f5ac17cec8b9}, ! Handle
  Roof Membrane,                          ! Name
  VeryRough,                              ! Roughness
  0.0094999999999999998,                  ! Thickness
  0.16,                                   ! Conductivity
  1121.29,                                ! Density
  1460,                                   ! Specific Heat
  0.90000000000000002,                    ! Thermal Absorptance
  0.69999999999999996,                    ! Solar Absorptance
  0.69999999999999996;                    ! Visible Absorptance

OS:Material,
  {274b3083-38c6-4ade-894a-0ac5933ca0a0}, ! Handle
  Roof Insulation [21],                   ! Name
  MediumRough,                            ! Roughness
  0.21049999999999999,                    ! Thickness
  0.049000000000000002,                   ! Conductivity
  265,                                    ! Density
  836.79999999999995,                     ! Specific Heat
  0.90000000000000002,                    ! Thermal Absorptance