
OS:Version,
  {602f13b1-9c24-47c9-b3e1-a2dc60952fdd}, !- Handle
  3.2.0;                                  !- Version Identifier

OS:BuildingStory,
  {cc51976f-cca0-4b74-9f3f-3ddb73ac1a89}, !- Handle
  Story 1,                                !- Name
  0,                                      !- Nominal Z Coordinate {m}
  4,                                      !- Nominal Floor to Floor Height {m}
  ,                                       !- Default Construction Set Name
  ,                                       !- Default Schedule Set Name
  ;                                       !- Group Rendering Name

OS:Space,
  {946813ea-92bd-4b09-85c9-31a9fd58e2e8}, !- Handle
  Story 1 Core Space,                     !- Name
  ,                                       !- Space Type Name
  ,                                       !- Default Construction Set Name
  ,                                       !- Default Schedule Set Name
  -0,                                     !- Direction of Relative North {deg}
  0,                                      !- X Origin {m}
  0,                                      !- Y Origin {m}
  0,                                      !- Z Origin {m}
  {cc51976f-cca0-4b74-9f3f-3ddb73ac1a89}, !- Building Story Name
  {3956afed-f3d7-4e4e-b071-7f1fce28758e}; !- Thermal Zone Name

OS:Surface,
  {0de0e328-740f-405e-b83c-bb4092868e51}, !- Handle
  Surface 1,                              !- Name
  Floor,                                  !- Surface Type
  ,                                       !- Construction Name
  {946813ea-92bd-4b09-85c9-31a9fd58e2e8}, !- Space Name
  Ground,                                 !- Outside Boundary Condition
  ,                                       !- Outside Boundary Condition Object
  NoSun,                                  !- Sun Exposure
  NoWind,                                 !- Wind Exposure
  ,                                       !- View Factor to Ground
  ,                                       !- Number of Vertices
  0, 0, 0,                                !- X,Y,Z Vertex 1 {m}
  0, 50, 0,                               !- X,Y,Z Vertex 2 {m}
  100, 50, 0,                             !- X,Y,Z Vertex 3 {m}
  100, 0, 0;                              !- X,Y,Z Vertex 4 {m}

OS:Surface,
  {242fd37e-d5ab-4b92-be05-53bba319f90d}, !- Handle
  Surface 2,                              !- Name
  Wall,                                   !- Surface Type
  ,                                       !- Construction Name
  {946813ea-92bd-4b09-85c9-31a9fd58e2e8}, !- Space Name
  Outdoors,                               !- Outside Boundary Condition
  ,                                       !- Outside Boundary Condition Object
  SunExposed,                             !- Sun Exposure
  WindExposed,                            !- Wind Exposure
  ,                                       !- View Factor to Ground
  ,                                       !- Number of Vertices
  0, 50, 4,                               !- X,Y,Z Vertex 1 {m}
  0, 50, 0,                               !- X,Y,Z Vertex 2 {m}
  0, 0, 0,                                !- X,Y,Z Vertex 3 {m}
  0, 0, 4;                                !- X,Y,Z Vertex 4 {m}

OS:Surface,
  {088eab87-a4c8-4ccb-9e71-3781efcdfba5}, !- Handle
  Surface 3,                              !- Name
  Wall,                                   !- Surface Type
  ,                                       !- Construction Name
  {946813ea-92bd-4b09-85c9-31a9fd58e2e8}, !- Space Name
  Outdoors,                               !- Outside Boundary Condition
  ,                                       !- Outside Boundary Condition Object
  SunExposed,                             !- Sun Exposure
  WindExposed,                            !- Wind Exposure
  ,                                       !- View Factor to Ground
  ,                                       !- Number of Vertices
  100, 50, 4,                             !- X,Y,Z Vertex 1 {m}
  100, 50, 0,                             !- X,Y,Z Vertex 2 {m}
  0, 50, 0,                               !- X,Y,Z Vertex 3 {m}
  0, 50, 4;                               !- X,Y,Z Vertex 4 {m}

OS:Surface,
  {a504178c-f9bf-44c7-bb75-70a2a3f44b15}, !- Handle
  Surface 4,                              !- Name
  Wall,                                   !- Surface Type
  ,                                       !- Construction Name
  {946813ea-92bd-4b09-85c9-31a9fd58e2e8}, !- Space Name
  Outdoors,                               !- Outside Boundary Condition
  ,                                       !- Outside Boundary Condition Object
  SunExposed,                             !- Sun Exposure
  WindExposed,                            !- Wind Exposure
  ,                                       !- View Factor to Ground
  ,                                       !- Number of Vertices
  100, 0, 4,                              !- X,Y,Z Vertex 1 {m}
  100, 0, 0,                              !- X,Y,Z Vertex 2 {m}
  100, 50, 0,                             !- X,Y,Z Vertex 3 {m}
  100, 50, 4;                             !- X,Y,Z Vertex 4 {m}

OS:Surface,
  {cc2a59f0-aec1-46f3-8b64-d90fa6688d84}, !- Handle
  Surface 5,                              !- Name
  Wall,                                   !- Surface Type
  ,                                       !- Construction Name
  {946813ea-92bd-4b09-85c9-31a9fd58e2e8}, !- Space Name
  Outdoors,                               !- Outside Boundary Condition
  ,                                       !- Outside Boundary Condition Object
  SunExposed,                             !- Sun Exposure
  WindExposed,                            !- Wind Exposure
  ,                                       !- View Factor to Ground
  ,                                       !- Number of Vertices
  0, 0, 4,                                !- X,Y,Z Vertex 1 {m}
  0, 0, 0,                                !- X,Y,Z Vertex 2 {m}
  100, 0, 0,                              !- X,Y,Z Vertex 3 {m}
  100, 0, 4;                              !- X,Y,Z Vertex 4 {m}

OS:Surface,
  {37fb507f-262b-4079-b3a4-8946a4fac180}, !- Handle
  Surface 6,                              !- Name
  RoofCeiling,                            !- Surface Type
  ,                                       !- Construction Name
  {946813ea-92bd-4b09-85c9-31a9fd58e2e8}, !- Space Name
  Outdoors,                               !- Outside Boundary Condition
  ,                                       !- Outside Boundary Condition Object
  SunExposed,                             !- Sun Exposure
  WindExposed,                            !- Wind Exposure
  ,                                       !- View Factor to Ground
  ,                                       !- Number of Vertices
  100, 0, 4,                              !- X,Y,Z Vertex 1 {m}
  100, 50, 4,                             !- X,Y,Z Vertex 2 {m}
  0, 50, 4,                               !- X,Y,Z Vertex 3 {m}
  0, 0, 4;                                !- X,Y,Z Vertex 4 {m}

OS:ThermalZone,
  {3956afed-f3d7-4e4e-b071-7f1fce28758e}, !- Handle
  Story 1 Core Thermal Zone,              !- Name
  ,                                       !- Multiplier
  ,                                       !- Ceiling Height {m}
  ,                                       !- Volume {m3}
  ,                                       !- Floor Area {m2}
  ,                                       !- Zone Inside Convection Algorithm
  ,                                       !- Zone Outside Convection Algorithm
  ,                                       !- Zone Conditioning Equipment List Name
  {6e7539e1-40e0-4bbd-84cd-d1f85e023dd0}, !- Zone Air Inlet Port List
  {08ab5fc1-ab5e-442f-b427-e7e3cee6a474}, !- Zone Air Exhaust Port List
  {731da9ca-83fa-4d9c-9ddb-609167986370}, !- Zone Air Node Name
  {01856896-cacf-4bab-94f8-7257e3b2834e}, !- Zone Return Air Port List
  ,                                       !- Primary Daylighting Control Name
  ,                                       !- Fraction of Zone Controlled by Primary Daylighting Control
  ,                                       !- Secondary Daylighting Control Name
  ,                                       !- Fraction of Zone Controlled by Secondary Daylighting Control
  ,                                       !- Illuminance Map Name
  ,                                       !- Group Rendering Name
  {62f43f64-0862-4911-a5c8-04c44407ecb1}, !- Thermostat Name
  Yes;                                    !- Use Ideal Air Loads

OS:Node,
  {8c4d73af-2c30-4efd-9d26-3e989a8e5dd5}, !- Handle
  Node 1,                                 !- Name
  {731da9ca-83fa-4d9c-9ddb-609167986370}, !- Inlet Port
  ;                                       !- Outlet Port

OS:Connection,
  {731da9ca-83fa-4d9c-9ddb-609167986370}, !- Handle
  {3956afed-f3d7-4e4e-b071-7f1fce28758e}, !- Source Object
  11,                                     !- Outlet Port
  {8c4d73af-2c30-4efd-9d26-3e989a8e5dd5}, !- Target Object
  2;                                      !- Inlet Port

OS:PortList,
  {6e7539e1-40e0-4bbd-84cd-d1f85e023dd0}, !- Handle
  {3956afed-f3d7-4e4e-b071-7f1fce28758e}; !- HVAC Component

OS:PortList,
  {08ab5fc1-ab5e-442f-b427-e7e3cee6a474}, !- Handle
  {3956afed-f3d7-4e4e-b071-7f1fce28758e}; !- HVAC Component

OS:PortList,
  {01856896-cacf-4bab-94f8-7257e3b2834e}, !- Handle
  {3956afed-f3d7-4e4e-b071-7f1fce28758e}; !- HVAC Component

OS:Sizing:Zone,
  {cf41162b-4cc2-45cd-b758-ec93e3fbaf98}, !- Handle
  {3956afed-f3d7-4e4e-b071-7f1fce28758e}, !- Zone or ZoneList Name
  SupplyAirTemperature,                   !- Zone Cooling Design Supply Air Temperature Input Method
  14,                                     !- Zone Cooling Design Supply Air Temperature {C}
  11.11,                                  !- Zone Cooling Design Supply Air Temperature Difference {deltaC}
  SupplyAirTemperature,                   !- Zone Heating Design Supply Air Temperature Input Method
  40,                                     !- Zone Heating Design Supply Air Temperature {C}
  11.11,                                  !- Zone Heating Design Supply Air Temperature Difference {deltaC}
  0.0085,                                 !- Zone Cooling Design Supply Air Humidity Ratio {kg-H2O/kg-air}
  0.008,                                  !- Zone Heating Design Supply Air Humidity Ratio {kg-H2O/kg-air}
  ,                                       !- Zone Heating Sizing Factor
  ,                                       !- Zone Cooling Sizing Factor
  DesignDay,                              !- Cooling Design Air Flow Method
  ,                                       !- Cooling Design Air Flow Rate {m3/s}
  ,                                       !- Cooling Minimum Air Flow per Zone Floor Area {m3/s-m2}
  ,                                       !- Cooling Minimum Air Flow {m3/s}
  ,                                       !- Cooling Minimum Air Flow Fraction
  DesignDay,                              !- Heating Design Air Flow Method
  ,                                       !- Heating Design Air Flow Rate {m3/s}
  ,                                       !- Heating Maximum Air Flow per Zone Floor Area {m3/s-m2}
  ,                                       !- Heating Maximum Air Flow {m3/s}
  ,                                       !- Heating Maximum Air Flow Fraction
  No,                                     !- Account for Dedicated Outdoor Air System
  NeutralSupplyAir,                       !- Dedicated Outdoor Air System Control Strategy
  autosize,                               !- Dedicated Outdoor Air Low Setpoint Temperature for Design {C}
  autosize;                               !- Dedicated Outdoor Air High Setpoint Temperature for Design {C}

OS:ZoneHVAC:EquipmentList,
  {26409cc2-7034-45e0-a42b-229a42410c9a}, !- Handle
  Zone HVAC Equipment List 1,             !- Name
  {3956afed-f3d7-4e4e-b071-7f1fce28758e}; !- Thermal Zone

OS:SubSurface,
  {74c17f9d-9a48-485c-a82e-4bb1685cc45a}, !- Handle
  Sub Surface 1,                          !- Name
  FixedWindow,                            !- Sub Surface Type
  ,                                       !- Construction Name
  {a504178c-f9bf-44c7-bb75-70a2a3f44b15}, !- Surface Name
  ,                                       !- Outside Boundary Condition Object
  ,                                       !- View Factor to Ground
  ,                                       !- Frame and Divider Name
  ,                                       !- Multiplier
  ,                                       !- Number of Vertices
  100, 0.0254, 2.60162725328934,          !- X,Y,Z Vertex 1 {m}
  100, 0.0254, 1,                         !- X,Y,Z Vertex 2 {m}
  100, 49.9746, 1,                        !- X,Y,Z Vertex 3 {m}
  100, 49.9746, 2.60162725328934;         !- X,Y,Z Vertex 4 {m}

OS:SubSurface,
  {f6c7ace1-f920-49ca-a5ac-c7782ecfad9b}, !- Handle
  Sub Surface 2,                          !- Name
  FixedWindow,                            !- Sub Surface Type
  ,                                       !- Construction Name
  {cc2a59f0-aec1-46f3-8b64-d90fa6688d84}, !- Surface Name
  ,                                       !- Outside Boundary Condition Object
  ,                                       !- View Factor to Ground
  ,                                       !- Frame and Divider Name
  ,                                       !- Multiplier
  ,                                       !- Number of Vertices
  0.0254, 0, 2.60081321311226,            !- X,Y,Z Vertex 1 {m}
  0.0254, 0, 1,                           !- X,Y,Z Vertex 2 {m}
  99.9746, 0, 1,                          !- X,Y,Z Vertex 3 {m}
  99.9746, 0, 2.60081321311226;           !- X,Y,Z Vertex 4 {m}

OS:SubSurface,
  {091575ba-26dc-41c4-915e-c920d1ca069c}, !- Handle
  Sub Surface 3,                          !- Name
  FixedWindow,                            !- Sub Surface Type
  ,                                       !- Construction Name
  {088eab87-a4c8-4ccb-9e71-3781efcdfba5}, !- Surface Name
  ,                                       !- Outside Boundary Condition Object
  ,                                       !- View Factor to Ground
  ,                                       !- Frame and Divider Name
  ,                                       !- Multiplier
  ,                                       !- Number of Vertices
  99.9746, 50, 2.60081321311226,          !- X,Y,Z Vertex 1 {m}
  99.9746, 50, 1,                         !- X,Y,Z Vertex 2 {m}
  0.0253999999999905, 50, 1,              !- X,Y,Z Vertex 3 {m}
  0.0253999999999905, 50, 2.60081321311226; !- X,Y,Z Vertex 4 {m}

OS:SubSurface,
  {6682c49a-5916-4620-b37d-9ff0c8295511}, !- Handle
  Sub Surface 4,                          !- Name
  FixedWindow,                            !- Sub Surface Type
  ,                                       !- Construction Name
  {242fd37e-d5ab-4b92-be05-53bba319f90d}, !- Surface Name
  ,                                       !- Outside Boundary Condition Object
  ,                                       !- View Factor to Ground
  ,                                       !- Frame and Divider Name
  ,                                       !- Multiplier
  ,                                       !- Number of Vertices
  0, 49.9746, 2.60162725328934,           !- X,Y,Z Vertex 1 {m}
  0, 49.9746, 1,                          !- X,Y,Z Vertex 2 {m}
  0, 0.0254000000000048, 1,               !- X,Y,Z Vertex 3 {m}
  0, 0.0254000000000048, 2.60162725328934; !- X,Y,Z Vertex 4 {m}

OS:Schedule:Ruleset,
  {15f4fe6a-4aca-4e5f-a117-f521665c8bc4}, !- Handle
  Cooling Sch,                            !- Name
  {36490830-45ae-4fda-bf08-f5c5cc2f3914}, !- Schedule Type Limits Name
  {20c67992-3590-47d2-8ab6-ec7b6350c09f}; !- Default Day Schedule Name

OS:Schedule:Day,
  {20c67992-3590-47d2-8ab6-ec7b6350c09f}, !- Handle
  Cooling Sch Default,                    !- Name
  {36490830-45ae-4fda-bf08-f5c5cc2f3914}, !- Schedule Type Limits Name
  ,                                       !- Interpolate to Timestep
  24,                                     !- Hour 1
  0,                                      !- Minute 1
  26;                                     !- Value Until Time 1

OS:Schedule:Ruleset,
  {04f56905-8311-457d-8fd2-5942e4fa05d2}, !- Handle
  Heating Sch,                            !- Name
  {36490830-45ae-4fda-bf08-f5c5cc2f3914}, !- Schedule Type Limits Name
  {2d8c13d4-a542-4063-9202-692ac748fe68}; !- Default Day Schedule Name

OS:Schedule:Day,
  {2d8c13d4-a542-4063-9202-692ac748fe68}, !- Handle
  Heating Sch Default,                    !- Name
  {36490830-45ae-4fda-bf08-f5c5cc2f3914}, !- Schedule Type Limits Name
  ,                                       !- Interpolate to Timestep
  24,                                     !- Hour 1
  0,                                      !- Minute 1
  19;                                     !- Value Until Time 1

OS:ThermostatSetpoint:DualSetpoint,
  {62f43f64-0862-4911-a5c8-04c44407ecb1}, !- Handle
  Thermostat Setpoint Dual Setpoint 1,    !- Name
  {04f56905-8311-457d-8fd2-5942e4fa05d2}, !- Heating Setpoint Temperature Schedule Name
  {15f4fe6a-4aca-4e5f-a117-f521665c8bc4}; !- Cooling Setpoint Temperature Schedule Name

OS:ScheduleTypeLimits,
  {36490830-45ae-4fda-bf08-f5c5cc2f3914}, !- Handle
  Temperature,                            !- Name
  ,                                       !- Lower Limit Value
  ,                                       !- Upper Limit Value
  Continuous,                             !- Numeric Type
  Temperature;                            !- Unit Type

OS:DefaultConstructionSet,
  {97ce8cbd-d401-4cac-8f1b-3f351bbe65f5}, !- Handle
  ASHRAE_189.1-2009_ClimateZone 4-5 (mdoff)_ConstSet, !- Name
  {11f46204-d9f8-4188-a9d6-39fd214dc495}, !- Default Exterior Surface Constructions Name
  {007117d0-c83a-456e-bda9-b86954c1577f}, !- Default Interior Surface Constructions Name
  {82b1024d-cb42-42c9-9f0c-52e7edf622de}, !- Default Ground Contact Surface Constructions Name
  {3e3310f9-dcb7-4fb0-bc34-43fd71f8ae55}, !- Default Exterior SubSurface Constructions Name
  {5cfe7ec7-cc6b-4e0b-8067-41f97790c976}, !- Default Interior SubSurface Constructions Name
  {31c0c15a-4f63-412f-9c5a-7194f1fab024}, !- Interior Partition Construction Name
  ,                                       !- Space Shading Construction Name
  ,                                       !- Building Shading Construction Name
  ,                                       !- Site Shading Construction Name
  ;                                       !- Adiabatic Surface Construction Name

OS:DefaultSurfaceConstructions,
  {11f46204-d9f8-4188-a9d6-39fd214dc495}, !- Handle
  ASHRAE_189.1-2009_ClimateZone 4-5 (mdoff)_Exterior_DefSurfCons, !- Name
  {a1f9a33f-5e51-48fd-99e4-36e019583736}, !- Floor Construction Name
  {9937ac47-08bc-4ba1-8278-7d7c00609697}, !- Wall Construction Name
  {61161732-1af8-4216-8863-27e9f7e9a52f}; !- Roof Ceiling Construction Name

OS:DefaultSurfaceConstructions,
  {007117d0-c83a-456e-bda9-b86954c1577f}, !- Handle
  000_Interior_DefSurfCons,               !- Name
  {ae5acf65-1364-4adb-98ef-1aeccef116a0}, !- Floor Construction Name
  {290f078c-113e-4112-b7cc-2cfa47485d7f}, !- Wall Construction Name
  {dabb06be-01b3-4874-84cb-9fab1d41e800}; !- Roof Ceiling Construction Name

OS:DefaultSurfaceConstructions,
  {82b1024d-cb42-42c9-9f0c-52e7edf622de}, !- Handle
  000_Ground_DefSurfCons,                 !- Name
  {a1f9a33f-5e51-48fd-99e4-36e019583736}, !- Floor Construction Name
  {a1f9a33f-5e51-48fd-99e4-36e019583736}, !- Wall Construction Name
  {a1f9a33f-5e51-48fd-99e4-36e019583736}; !- Roof Ceiling Construction Name

OS:DefaultSubSurfaceConstructions,
  {3e3310f9-dcb7-4fb0-bc34-43fd71f8ae55}, !- Handle
  ASHRAE_189.1-2009_ClimateZone 4-5 (mdoff)_Exterior_DefSubCons, !- Name
  {aa0bdff7-6baa-497c-9581-fd90d8ddcf0a}, !- Fixed Window Construction Name
  {aa0bdff7-6baa-497c-9581-fd90d8ddcf0a}, !- Operable Window Construction Name
  {79220542-3cc4-4788-bd9b-18827bf08a4f}, !- Door Construction Name
  {b20f4288-0dc3-4342-b0d2-40ff697b0aed}, !- Glass Door Construction Name
  ,                                       !- Overhead Door Construction Name
  {b20f4288-0dc3-4342-b0d2-40ff697b0aed}, !- Skylight Construction Name
  {ecc28c66-6278-43a1-a9d6-83bcdbf0c667}, !- Tubular Daylight Dome Construction Name
  {ecc28c66-6278-43a1-a9d6-83bcdbf0c667}; !- Tubular Daylight Diffuser Construction Name

OS:DefaultSubSurfaceConstructions,
  {5cfe7ec7-cc6b-4e0b-8067-41f97790c976}, !- Handle
  000_Interior_DefSubCons,                !- Name
  {ecc28c66-6278-43a1-a9d6-83bcdbf0c667}, !- Fixed Window Construction Name
  {ecc28c66-6278-43a1-a9d6-83bcdbf0c667}, !- Operable Window Construction Name
  {12c57dd2-5e88-4275-b089-7ae210ff31d7}, !- Door Construction Name
  {b20f4288-0dc3-4342-b0d2-40ff697b0aed}, !- Glass Door Construction Name
  ,                                       !- Overhead Door Construction Name
  {b20f4288-0dc3-4342-b0d2-40ff697b0aed}, !- Skylight Construction Name
  {ecc28c66-6278-43a1-a9d6-83bcdbf0c667}, !- Tubular Daylight Dome Construction Name
  {ecc28c66-6278-43a1-a9d6-83bcdbf0c667}; !- Tubular Daylight Diffuser Construction Name

OS:Construction,
  {31c0c15a-4f63-412f-9c5a-7194f1fab024}, !- Handle
  000_Interior Partition,                 !- Name
  ,                                       !- Surface Rendering Name
  {387750cd-1cfb-46f0-b748-137c3c257c78}; !- Layer 1

OS:Construction,
  {a1f9a33f-5e51-48fd-99e4-36e019583736}, !- Handle
  000_ExtSlabCarpet_4in_ClimateZone 1-8,  !- Name
  ,                                       !- Surface Rendering Name
  {eebdb605-d43c-446f-906a-8a522bd209b9}, !- Layer 1
  {73ed4417-e67a-4327-a43b-47e3c9fc3359}; !- Layer 2

OS:Construction,
  {9937ac47-08bc-4ba1-8278-7d7c00609697}, !- Handle
  ASHRAE_189.1-2009_ExtWall_SteelFrame_ClimateZone 4-8, !- Name
  ,                                       !- Surface Rendering Name
  {9e8c24ff-1491-470d-97df-f27c28e6c0ed}, !- Layer 1
  {85c4a25a-5b73-475d-988f-344774ba5260}, !- Layer 2
  {cabbb6ed-aa78-44b9-8acf-dd7d385f9ab2}; !- Layer 3

OS:Construction,
  {61161732-1af8-4216-8863-27e9f7e9a52f}, !- Handle
  ASHRAE_189.1-2009_ExtRoof_IEAD_ClimateZone 2-5, !- Name
  ,                                       !- Surface Rendering Name
  {df3c061c-f9b4-420d-afe1-196c72899bf8}, !- Layer 1
  {8443ae89-7dd7-48a7-9321-1bd606ebe15b}, !- Layer 2
  {ecd9e0e3-5956-4f89-bf98-90e6ee2c6d04}; !- Layer 3

OS:Construction,
  {ae5acf65-1364-4adb-98ef-1aeccef116a0}, !- Handle
  000_Interior Floor,                     !- Name
  ,                                       !- Surface Rendering Name
  {8f922610-51d7-4f41-9161-921616281145}, !- Layer 1
  {4165d682-2a34-4e16-a9c7-6189e852a859}, !- Layer 2
  {7e77cf14-99dd-4c83-949f-79a2571af330}; !- Layer 3

OS:Construction,
  {290f078c-113e-4112-b7cc-2cfa47485d7f}, !- Handle
  000_Interior Wall,                      !- Name
  ,                                       !- Surface Rendering Name
  {9b5423a9-d6d2-4846-a772-f6f6cc0901f6}, !- Layer 1
  {53bfff4d-33a6-4f09-b5c5-c3d026975b3a}, !- Layer 2
  {9b5423a9-d6d2-4846-a772-f6f6cc0901f6}; !- Layer 3

OS:Construction,
  {dabb06be-01b3-4874-84cb-9fab1d41e800}, !- Handle
  000_Interior Ceiling,                   !- Name
  ,                                       !- Surface Rendering Name
  {7e77cf14-99dd-4c83-949f-79a2571af330}, !- Layer 1
  {4165d682-2a34-4e16-a9c7-6189e852a859}, !- Layer 2
  {8f922610-51d7-4f41-9161-921616281145}; !- Layer 3

OS:Construction,
  {aa0bdff7-6baa-497c-9581-fd90d8ddcf0a}, !- Handle
  ASHRAE_189.1-2009_ExtWindow_ClimateZone 4-5, !- Name
  ,                                       !- Surface Rendering Name
  {f88fceff-35d0-4ded-9915-2078a4262d2a}; !- Layer 1

OS:Construction,
  {79220542-3cc4-4788-bd9b-18827bf08a4f}, !- Handle
  000_Exterior Door,                      !- Name
  ,                                       !- Surface Rendering Name
  {c9f905d7-4e1c-405a-89c8-77ab5c1e0843}, !- Layer 1
  {4fc3a891-bdc8-4c41-940e-1743c59b819e}; !- Layer 2

OS:Construction,
  {b20f4288-0dc3-4342-b0d2-40ff697b0aed}, !- Handle
  000_Exterior Window,                    !- Name
  ,                                       !- Surface Rendering Name
  {0c36a195-16ff-48e3-b697-709a5c1b2ab0}, !- Layer 1
  {e80fc354-6f15-456b-91ef-1251e2095875}, !- Layer 2
  {0c36a195-16ff-48e3-b697-709a5c1b2ab0}; !- Layer 3

OS:Construction,
  {ecc28c66-6278-43a1-a9d6-83bcdbf0c667}, !- Handle
  000_Interior Window,                    !- Name
  ,                                       !- Surface Rendering Name
  {0c36a195-16ff-48e3-b697-709a5c1b2ab0}; !- Layer 1

OS:Construction,
  {12c57dd2-5e88-4275-b089-7ae210ff31d7}, !- Handle
  000_Interior Door,                      !- Name
  ,                                       !- Surface Rendering Name
  {387750cd-1cfb-46f0-b748-137c3c257c78}; !- Layer 1

OS:Material,
  {387750cd-1cfb-46f0-b748-137c3c257c78}, !- Handle
  000_G05 25mm wood,                      !- Name
  MediumSmooth,                           !- Roughness
  0.025399999999999999,                   !- Thickness {m}
  0.14999999999999999,                    !- Conductivity {W/m-K}
  608,                                    !- Density {kg/m3}
  1630;                                   !- Specific Heat {J/kg-K}

OS:Material,
  {eebdb605-d43c-446f-906a-8a522bd209b9}, !- Handle
  MAT-CC05 4 HW CONCRETE,                 !- Name
  Rough,                                  !- Roughness
  0.1016,                                 !- Thickness {m}
  1.3109999999999999,                     !- Conductivity {W/m-K}
  2240,                                   !- Density {kg/m3}
  836.8,                                  !- Specific Heat {J/kg-K}
  0.90000000000000002,                    !- Thermal Absorptance
  0.69999999999999996,                    !- Solar Absorptance
  0.69999999999999996;                    !- Visible Absorptance

OS:Material:NoMass,
  {73ed4417-e67a-4327-a43b-47e3c9fc3359}, !- Handle
  CP02 CARPET PAD,                        !- Name
  VeryRough,                              !- Roughness
  0.2165,                                 !- Thermal Resistance
  0.90000000000000002,                    !- Thermal Absorptance
  0.69999999999999996,                    !- Solar Absorptance
  0.80000000000000004;                    !- Visible Absorptance

OS:Material:NoMass,
  {9e8c24ff-1491-470d-97df-f27c28e6c0ed}, !- Handle
  MAT-SHEATH,                             !- Name
  Rough,                                  !- Roughness
  0.36259999999999998,                    !- Thermal Resistance
  0.90000000000000002,                    !- Thermal Absorptance
  0.69999999999999996,                    !- Solar Absorptance
  0.69999999999999996;                    !- Visible Absorptance

OS:Material,
  {85c4a25a-5b73-475d-988f-344774ba5260}, !- Handle
  Wall Insulation [39],                   !- Name
  MediumRough,                            !- Roughness
  0.11840000000000001,                    !- Thickness {m}
  0.044999999999999998,                   !- Conductivity {W/m-K}
  265,                                    !- Density {kg/m3}
  836.8,                                  !- Specific Heat {J/kg-K}
  0.90000000000000002,                    !- Thermal Absorptance
  0.69999999999999996,                    !- Solar Absorptance
  0.69999999999999996;                    !- Visible Absorptance

OS:Material,
  {cabbb6ed-aa78-44b9-8acf-dd7d385f9ab2}, !- Handle
  1/2IN Gypsum,                           !- Name
  Smooth,                                 !- Roughness
  0.012699999999999999,                   !- Thickness {m}
  0.16,                                   !- Conductivity {W/m-K}
  784.89999999999998,                     !- Density {kg/m3}
  830,                                    !- Specific Heat {J/kg-K}
  0.90000000000000002,                    !- Thermal Absorptance
  0.92000000000000004,                    !- Solar Absorptance
  0.92000000000000004;                    !- Visible Absorptance

OS:Material,
  {df3c061c-f9b4-420d-afe1-196c72899bf8}, !- Handle
  Roof Membrane,                          !- Name
  VeryRough,                              !- Roughness
  0.0094999999999999998,                  !- Thickness {m}
  0.16,                                   !- Conductivity {W/m-K}
  1121.29,                                !- Density {kg/m3}
  1460,                                   !- Specific Heat {J/kg-K}
  0.90000000000000002,                    !- Thermal Absorptance
  0.69999999999999996,                    !- Solar Absorptance
  0.69999999999999996;                    !- Visible Absorptance

OS:Material,
  {8443ae89-7dd7-48a7-9321-1bd606ebe15b}, !- Handle
  Roof Insulation [21],                   !- Name
  MediumRough,                            !- Roughness
  0.21049999999999999,                    !- Thickness {m}
  0.049000000000000002,                   !- Conductivity {W/m-K}
  265,                                    !- Density {kg/m3}
  836.8,                                  !- Specific Heat {J/kg-K}
  0.90000000000000002,                    !- Thermal Absorptance
  0.69999999999999996,                    !- Solar Absorptance
  0.69999999999999996;                    !- Visible Absorptance

OS:Material,
  {ecd9e0e3-5956-4f89-bf98-90e6ee2c6d04}, !- Handle
  Metal Decking,                          !- Name
  MediumSmooth,                           !- Roughness
  0.0015,                                 !- Thickness {m}
  45.006,                                 !- Conductivity {W/m-K}
  7680,                                   !- Density {kg/m3}
  418.4,                                  !- Specific Heat {J/kg-K}
  0.90000000000000002,                    !- Thermal Absorptance
  0.69999999999999996,                    !- Solar Absorptance
  0.29999999999999999;                    !- Visible Absorptance

OS:Material,
  {8f922610-51d7-4f41-9161-921616281145}, !- Handle
  000_F16 Acoustic tile,                  !- Name
  MediumSmooth,                           !- Roughness