
OS:Version,
  {8db83b01-0919-4b39-b0bd-236c879049d2}, !- Handle
  2.9.0;                                  !- Version Identifier

OS:BuildingStory,
  {b381f22a-c1db-44f7-9e95-b27ac662eb29}, !- Handle
  Story 1,                                !- Name
  0,                                      !- Nominal Z Coordinate {m}
  4,                                      !- Nominal Floor to Floor Height {m}
  ,                                       !- Default Construction Set Name
  ,                                       !- Default Schedule Set Name
  ;                                       !- Group Rendering Name

OS:Space,
  {5dc5d7cb-1f4e-48ae-962e-dacdcda80584}, !- Handle
  Story 1 Core Space,                     !- Name
  ,                                       !- Space Type Name
  ,                                       !- Default Construction Set Name
  ,                                       !- Default Schedule Set Name
  -0,                                     !- Direction of Relative North {deg}
  0,                                      !- X Origin {m}
  0,                                      !- Y Origin {m}
  0,                                      !- Z Origin {m}
  {b381f22a-c1db-44f7-9e95-b27ac662eb29}, !- Building Story Name
  {e38d87c0-bee1-4a6a-9e69-fdfe2f0bed5f}; !- Thermal Zone Name

OS:Surface,
  {851f0cbc-84c9-4047-b34e-ceeaffc1fc33}, !- Handle
  Surface 1,                              !- Name
  Floor,                                  !- Surface Type
  ,                                       !- Construction Name
  {5dc5d7cb-1f4e-48ae-962e-dacdcda80584}, !- Space Name
  Ground,                                 !- Outside Boundary Condition
  ,                                       !- Outside Boundary Condition Object
  NoSun,                                  !- Sun Exposure
  NoWind,                                 !- Wind Exposure
  ,                                       !- View Factor to Ground
  ,                                       !- Number of Vertices
  0, 0, 0,                                !- X,Y,Z Vertex 1 {m}
  0, 50, 0,                               !- X,Y,Z Vertex 2 {m}
  100, 50, 0,                             !- X,Y,Z Vertex 3 {m}
  100, 0, 0;                              !- X,Y,Z Vertex 4 {m}

OS:Surface,
  {654cdb28-35d0-4440-931b-438c767cefba}, !- Handle
  Surface 2,                              !- Name
  Wall,                                   !- Surface Type
  ,                                       !- Construction Name
  {5dc5d7cb-1f4e-48ae-962e-dacdcda80584}, !- Space Name
  Outdoors,                               !- Outside Boundary Condition
  ,                                       !- Outside Boundary Condition Object
  SunExposed,                             !- Sun Exposure
  WindExposed,                            !- Wind Exposure
  ,                                       !- View Factor to Ground
  ,                                       !- Number of Vertices
  0, 50, 4,                               !- X,Y,Z Vertex 1 {m}
  0, 50, 0,                               !- X,Y,Z Vertex 2 {m}
  0, 0, 0,                                !- X,Y,Z Vertex 3 {m}
  0, 0, 4;                                !- X,Y,Z Vertex 4 {m}

OS:Surface,
  {718e986c-a36d-4a29-9f90-779b56aa5b9c}, !- Handle
  Surface 3,                              !- Name
  Wall,                                   !- Surface Type
  ,                                       !- Construction Name
  {5dc5d7cb-1f4e-48ae-962e-dacdcda80584}, !- Space Name
  Outdoors,                               !- Outside Boundary Condition
  ,                                       !- Outside Boundary Condition Object
  SunExposed,                             !- Sun Exposure
  WindExposed,                            !- Wind Exposure
  ,                                       !- View Factor to Ground
  ,                                       !- Number of Vertices
  100, 50, 4,                             !- X,Y,Z Vertex 1 {m}
  100, 50, 0,                             !- X,Y,Z Vertex 2 {m}
  0, 50, 0,                               !- X,Y,Z Vertex 3 {m}
  0, 50, 4;                               !- X,Y,Z Vertex 4 {m}

OS:Surface,
  {8679daf5-e2e4-4612-8167-4d639771ea24}, !- Handle
  Surface 4,                              !- Name
  Wall,                                   !- Surface Type
  ,                                       !- Construction Name
  {5dc5d7cb-1f4e-48ae-962e-dacdcda80584}, !- Space Name
  Outdoors,                               !- Outside Boundary Condition
  ,                                       !- Outside Boundary Condition Object
  SunExposed,                             !- Sun Exposure
  WindExposed,                            !- Wind Exposure
  ,                                       !- View Factor to Ground
  ,                                       !- Number of Vertices
  100, 0, 4,                              !- X,Y,Z Vertex 1 {m}
  100, 0, 0,                              !- X,Y,Z Vertex 2 {m}
  100, 50, 0,                             !- X,Y,Z Vertex 3 {m}
  100, 50, 4;                             !- X,Y,Z Vertex 4 {m}

OS:Surface,
  {f8481888-aa0b-4630-8ab3-2b284ad4849b}, !- Handle
  Surface 5,                              !- Name
  Wall,                                   !- Surface Type
  ,                                       !- Construction Name
  {5dc5d7cb-1f4e-48ae-962e-dacdcda80584}, !- Space Name
  Outdoors,                               !- Outside Boundary Condition
  ,                                       !- Outside Boundary Condition Object
  SunExposed,                             !- Sun Exposure
  WindExposed,                            !- Wind Exposure
  ,                                       !- View Factor to Ground
  ,                                       !- Number of Vertices
  0, 0, 4,                                !- X,Y,Z Vertex 1 {m}
  0, 0, 0,                                !- X,Y,Z Vertex 2 {m}
  100, 0, 0,                              !- X,Y,Z Vertex 3 {m}
  100, 0, 4;                              !- X,Y,Z Vertex 4 {m}

OS:Surface,
  {8a57a2b2-af8c-49bf-9877-63ff322885de}, !- Handle
  Surface 6,                              !- Name
  RoofCeiling,                            !- Surface Type
  ,                                       !- Construction Name
  {5dc5d7cb-1f4e-48ae-962e-dacdcda80584}, !- Space Name
  Outdoors,                               !- Outside Boundary Condition
  ,                                       !- Outside Boundary Condition Object
  SunExposed,                             !- Sun Exposure
  WindExposed,                            !- Wind Exposure
  ,                                       !- View Factor to Ground
  ,                                       !- Number of Vertices
  100, 0, 4,                              !- X,Y,Z Vertex 1 {m}
  100, 50, 4,                             !- X,Y,Z Vertex 2 {m}
  0, 50, 4,                               !- X,Y,Z Vertex 3 {m}
  0, 0, 4;                                !- X,Y,Z Vertex 4 {m}

OS:ThermalZone,
  {e38d87c0-bee1-4a6a-9e69-fdfe2f0bed5f}, !- Handle
  Story 1 Core Thermal Zone,              !- Name
  ,                                       !- Multiplier
  ,                                       !- Ceiling Height {m}
  ,                                       !- Volume {m3}
  ,                                       !- Floor Area {m2}
  ,                                       !- Zone Inside Convection Algorithm
  ,                                       !- Zone Outside Convection Algorithm
  ,                                       !- Zone Conditioning Equipment List Name
  {8fae44a5-a95b-44a7-8bf0-6e130db4338b}, !- Zone Air Inlet Port List
  {e0fa44dd-73ed-4902-b58d-4a68901a2415}, !- Zone Air Exhaust Port List
  {0826da75-972a-4c22-8204-e5fa25dce9e4}, !- Zone Air Node Name
  {60682fdc-ac7b-4fe6-99d2-c3e9e3efd88d}, !- Zone Return Air Port List
  ,                                       !- Primary Daylighting Control Name
  ,                                       !- Fraction of Zone Controlled by Primary Daylighting Control
  ,                                       !- Secondary Daylighting Control Name
  ,                                       !- Fraction of Zone Controlled by Secondary Daylighting Control
  ,                                       !- Illuminance Map Name
  ,                                       !- Group Rendering Name
  {05f68e62-bfdf-4576-bbd3-643439e07595}, !- Thermostat Name
  No;                                     !- Use Ideal Air Loads

OS:Node,
  {07d50902-b1cd-47e0-881e-5893295ee1bf}, !- Handle
  Node 1,                                 !- Name
  {0826da75-972a-4c22-8204-e5fa25dce9e4}, !- Inlet Port
  ;                                       !- Outlet Port

OS:Connection,
  {0826da75-972a-4c22-8204-e5fa25dce9e4}, !- Handle
  {65565b5d-4842-4168-a89c-ece08b08573a}, !- Name
  {e38d87c0-bee1-4a6a-9e69-fdfe2f0bed5f}, !- Source Object
  11,                                     !- Outlet Port
  {07d50902-b1cd-47e0-881e-5893295ee1bf}, !- Target Object
  2;                                      !- Inlet Port

OS:PortList,
  {8fae44a5-a95b-44a7-8bf0-6e130db4338b}, !- Handle
  {46f728ac-ea1a-42d8-8955-21821cf0d92c}, !- Name
  {e38d87c0-bee1-4a6a-9e69-fdfe2f0bed5f}, !- HVAC Component
  {295706e9-53df-476d-812d-5dbc1b072b2f}; !- Port 1

OS:PortList,
  {e0fa44dd-73ed-4902-b58d-4a68901a2415}, !- Handle
  {b1b6487e-ed18-4fb7-8c52-d01df7fb72d9}, !- Name
  {e38d87c0-bee1-4a6a-9e69-fdfe2f0bed5f}; !- HVAC Component

OS:PortList,
  {60682fdc-ac7b-4fe6-99d2-c3e9e3efd88d}, !- Handle
  {832e9478-9772-4c19-8edd-d2d1fa9b8769}, !- Name
  {e38d87c0-bee1-4a6a-9e69-fdfe2f0bed5f}, !- HVAC Component
  {d7158f57-f894-4074-860b-2ce11c7b8d16}; !- Port 1

OS:Sizing:Zone,
  {23924733-674d-407c-89b0-0ad7bc692b07}, !- Handle
  {e38d87c0-bee1-4a6a-9e69-fdfe2f0bed5f}, !- Zone or ZoneList Name
  SupplyAirTemperature,                   !- Zone Cooling Design Supply Air Temperature Input Method
  14,                                     !- Zone Cooling Design Supply Air Temperature {C}
  11.11,                                  !- Zone Cooling Design Supply Air Temperature Difference {deltaC}
  SupplyAirTemperature,                   !- Zone Heating Design Supply Air Temperature Input Method
  40,                                     !- Zone Heating Design Supply Air Temperature {C}
  11.11,                                  !- Zone Heating Design Supply Air Temperature Difference {deltaC}
  0.0085,                                 !- Zone Cooling Design Supply Air Humidity Ratio {kg-H2O/kg-air}
  0.008,                                  !- Zone Heating Design Supply Air Humidity Ratio {kg-H2O/kg-air}
  ,                                       !- Zone Heating Sizing Factor
  ,                                       !- Zone Cooling Sizing Factor
  DesignDay,                              !- Cooling Design Air Flow Method
  ,                                       !- Cooling Design Air Flow Rate {m3/s}
  ,                                       !- Cooling Minimum Air Flow per Zone Floor Area {m3/s-m2}
  ,                                       !- Cooling Minimum Air Flow {m3/s}
  ,                                       !- Cooling Minimum Air Flow Fraction
  DesignDay,                              !- Heating Design Air Flow Method
  ,                                       !- Heating Design Air Flow Rate {m3/s}
  ,                                       !- Heating Maximum Air Flow per Zone Floor Area {m3/s-m2}
  ,                                       !- Heating Maximum Air Flow {m3/s}
  ,                                       !- Heating Maximum Air Flow Fraction
  ,                                       !- Design Zone Air Distribution Effectiveness in Cooling Mode
  ,                                       !- Design Zone Air Distribution Effectiveness in Heating Mode
  No,                                     !- Account for Dedicated Outdoor Air System
  NeutralSupplyAir,                       !- Dedicated Outdoor Air System Control Strategy
  autosize,                               !- Dedicated Outdoor Air Low Setpoint Temperature for Design {C}
  autosize;                               !- Dedicated Outdoor Air High Setpoint Temperature for Design {C}

OS:ZoneHVAC:EquipmentList,
  {a5e7ecf3-c908-408c-a1d1-d640891831a3}, !- Handle
  Zone HVAC Equipment List 1,             !- Name
  {e38d87c0-bee1-4a6a-9e69-fdfe2f0bed5f}, !- Thermal Zone
  ,                                       !- Load Distribution Scheme
  {dc2e4e5e-ef50-4304-87dd-bc1f11b15b55}, !- Zone Equipment 1
  1,                                      !- Zone Equipment Cooling Sequence 1
  1,                                      !- Zone Equipment Heating or No-Load Sequence 1
  ,                                       !- Zone Equipment Sequential Cooling Fraction Schedule Name 1
  ;                                       !- Zone Equipment Sequential Heating Fraction Schedule Name 1

OS:SubSurface,
  {c87ec181-acad-4da1-8cf5-5324951ff92f}, !- Handle
  Sub Surface 1,                          !- Name
  FixedWindow,                            !- Sub Surface Type
  ,                                       !- Construction Name
  {8679daf5-e2e4-4612-8167-4d639771ea24}, !- Surface Name
  ,                                       !- Outside Boundary Condition Object
  ,                                       !- View Factor to Ground
  ,                                       !- Shading Control Name
  ,                                       !- Frame and Divider Name
  ,                                       !- Multiplier
  ,                                       !- Number of Vertices
  100, 0.0254, 2.60162725328934,          !- X,Y,Z Vertex 1 {m}
  100, 0.0254, 1,                         !- X,Y,Z Vertex 2 {m}
  100, 49.9746, 1,                        !- X,Y,Z Vertex 3 {m}
  100, 49.9746, 2.60162725328934;         !- X,Y,Z Vertex 4 {m}

OS:SubSurface,
  {df164047-822d-48f8-9459-893f9bf3c91f}, !- Handle
  Sub Surface 2,                          !- Name
  FixedWindow,                            !- Sub Surface Type
  ,                                       !- Construction Name
  {f8481888-aa0b-4630-8ab3-2b284ad4849b}, !- Surface Name
  ,                                       !- Outside Boundary Condition Object
  ,                                       !- View Factor to Ground
  ,                                       !- Shading Control Name
  ,                                       !- Frame and Divider Name
  ,                                       !- Multiplier
  ,                                       !- Number of Vertices
  0.0254, 0, 2.60081321311226,            !- X,Y,Z Vertex 1 {m}
  0.0254, 0, 1,                           !- X,Y,Z Vertex 2 {m}
  99.9746, 0, 1,                          !- X,Y,Z Vertex 3 {m}
  99.9746, 0, 2.60081321311226;           !- X,Y,Z Vertex 4 {m}

OS:SubSurface,
  {9a2e6f6d-96e8-43ef-ac39-1732a6f591d6}, !- Handle
  Sub Surface 3,                          !- Name
  FixedWindow,                            !- Sub Surface Type
  ,                                       !- Construction Name
  {718e986c-a36d-4a29-9f90-779b56aa5b9c}, !- Surface Name
  ,                                       !- Outside Boundary Condition Object
  ,                                       !- View Factor to Ground
  ,                                       !- Shading Control Name
  ,                                       !- Frame and Divider Name
  ,                                       !- Multiplier
  ,                                       !- Number of Vertices
  99.9746, 50, 2.60081321311226,          !- X,Y,Z Vertex 1 {m}
  99.9746, 50, 1,                         !- X,Y,Z Vertex 2 {m}
  0.0253999999999905, 50, 1,              !- X,Y,Z Vertex 3 {m}
  0.0253999999999905, 50, 2.60081321311226; !- X,Y,Z Vertex 4 {m}

OS:SubSurface,
  {f2f440bd-f28a-4184-a492-54db390cbe97}, !- Handle
  Sub Surface 4,                          !- Name
  FixedWindow,                            !- Sub Surface Type
  ,                                       !- Construction Name
  {654cdb28-35d0-4440-931b-438c767cefba}, !- Surface Name
  ,                                       !- Outside Boundary Condition Object
  ,                                       !- View Factor to Ground
  ,                                       !- Shading Control Name
  ,                                       !- Frame and Divider Name
  ,                                       !- Multiplier
  ,                                       !- Number of Vertices
  0, 49.9746, 2.60162725328934,           !- X,Y,Z Vertex 1 {m}
  0, 49.9746, 1,                          !- X,Y,Z Vertex 2 {m}
  0, 0.0254000000000048, 1,               !- X,Y,Z Vertex 3 {m}
  0, 0.0254000000000048, 2.60162725328934; !- X,Y,Z Vertex 4 {m}

OS:Schedule:Constant,
  {ea9377c0-1987-4cab-ac69-290ed6b290ed}, !- Handle
  Always On Discrete,                     !- Name
  {dc4f272a-2314-4c1e-ac7e-840fcdf8173c}, !- Schedule Type Limits Name
  1;                                      !- Value

OS:ScheduleTypeLimits,
  {dc4f272a-2314-4c1e-ac7e-840fcdf8173c}, !- Handle
  OnOff,                                  !- Name
  0,                                      !- Lower Limit Value
  1,                                      !- Upper Limit Value
  Discrete,                               !- Numeric Type
  Availability;                           !- Unit Type

OS:AirLoopHVAC,
  {b855ed68-59ea-4f19-9045-10cc7d33b4b0}, !- Handle
  Packaged Rooftop Air Conditioner,       !- Name
  ,                                       !- Controller List Name
  {ea9377c0-1987-4cab-ac69-290ed6b290ed}, !- Availability Schedule
  {4a5afecd-de9d-44d2-b15d-37648416151b}, !- Availability Manager List Name
  AutoSize,                               !- Design Supply Air Flow Rate {m3/s}
  ,                                       !- Branch List Name
  ,                                       !- Connector List Name
  {fce21453-ed8c-4a42-bfeb-8834b45f2506}, !- Supply Side Inlet Node Name
  {145c0e09-0c79-492a-9e2d-82c97d153dab}, !- Demand Side Outlet Node Name
  {3fb34371-2337-4050-8a7c-3379dd074606}, !- Demand Side Inlet Node A
  {25104137-3df5-40d7-a955-0a2a76c0d3e9}, !- Supply Side Outlet Node A
  ,                                       !- Demand Side Inlet Node B
  ,                                       !- Supply Side Outlet Node B
  ,                                       !- Return Air Bypass Flow Temperature Setpoint Schedule Name
  {07915a54-6c89-4236-9c83-bec7e04f3859}, !- Demand Mixer Name
  {37dc9902-266b-4194-926d-139dc46a2cbe}, !- Demand Splitter A Name
  ,                                       !- Demand Splitter B Name
  ;                                       !- Supply Splitter Name

OS:Node,
  {68d8f6c5-75c2-466d-9888-6eedc37ca0e4}, !- Handle
  Node 2,                                 !- Name
  {fce21453-ed8c-4a42-bfeb-8834b45f2506}, !- Inlet Port
  {c26bf988-b7de-42ed-8217-e3f4c445f441}; !- Outlet Port

OS:Node,
  {7d96dc50-f63f-41e5-96e8-69831afbe497}, !- Handle
  Node 3,                                 !- Name
  {5e4ed295-af2e-4364-9daa-2c782e187f84}, !- Inlet Port
  {25104137-3df5-40d7-a955-0a2a76c0d3e9}; !- Outlet Port

OS:Connection,
  {fce21453-ed8c-4a42-bfeb-8834b45f2506}, !- Handle
  {13b89884-7b5e-4583-b733-dfd2b4c5959d}, !- Name
  {b855ed68-59ea-4f19-9045-10cc7d33b4b0}, !- Source Object
  8,                                      !- Outlet Port
  {68d8f6c5-75c2-466d-9888-6eedc37ca0e4}, !- Target Object
  2;                                      !- Inlet Port

OS:Connection,
  {25104137-3df5-40d7-a955-0a2a76c0d3e9}, !- Handle
  {feb33512-5cb9-40bc-bc70-a3512400d3f3}, !- Name
  {7d96dc50-f63f-41e5-96e8-69831afbe497}, !- Source Object
  3,                                      !- Outlet Port
  {b855ed68-59ea-4f19-9045-10cc7d33b4b0}, !- Target Object
  11;                                     !- Inlet Port

OS:Node,
  {28f79392-c855-4847-bb5f-056e38c4b199}, !- Handle
  Node 4,                                 !- Name
  {3fb34371-2337-4050-8a7c-3379dd074606}, !- Inlet Port
  {f8f6ef5b-d6d9-44e9-870f-8d1a14ad81b1}; !- Outlet Port

OS:Node,
  {a32490d8-109e-4bb4-b3b8-68bad12cb58d}, !- Handle
  Node 5,                                 !- Name
  {e4efd485-46f3-4768-9360-bd49050e1b4e}, !- Inlet Port
  {145c0e09-0c79-492a-9e2d-82c97d153dab}; !- Outlet Port

OS:Node,
  {bdcff337-e6bb-4ca6-b191-cb03ee1d9bf0}, !- Handle
  Node 6,                                 !- Name
  {8fee365e-afb9-4749-90a9-3cbd8ee197b8}, !- Inlet Port
  {295706e9-53df-476d-812d-5dbc1b072b2f}; !- Outlet Port

OS:Connection,
  {3fb34371-2337-4050-8a7c-3379dd074606}, !- Handle
  {6c1f3916-735e-4fd7-ae26-2e11459c77c3}, !- Name
  {b855ed68-59ea-4f19-9045-10cc7d33b4b0}, !- Source Object
  10,                                     !- Outlet Port
  {28f79392-c855-4847-bb5f-056e38c4b199}, !- Target Object
  2;                                      !- Inlet Port

OS:Connection,
  {145c0e09-0c79-492a-9e2d-82c97d153dab}, !- Handle
  {3edf9639-01c1-4779-9a35-cf58e18d4680}, !- Name
  {a32490d8-109e-4bb4-b3b8-68bad12cb58d}, !- Source Object
  3,                                      !- Outlet Port
  {b855ed68-59ea-4f19-9045-10cc7d33b4b0}, !- Target Object
  9;                                      !- Inlet Port

OS:AirLoopHVAC:ZoneSplitter,
  {37dc9902-266b-4194-926d-139dc46a2cbe}, !- Handle
  Air Loop HVAC Zone Splitter 1,          !- Name
  {f8f6ef5b-d6d9-44e9-870f-8d1a14ad81b1}, !- Inlet Node Name
  {e8c460ca-c196-4dd7-a257-3a575fc7ff2f}; !- Outlet Node Name 1

OS:AirLoopHVAC:ZoneMixer,
  {07915a54-6c89-4236-9c83-bec7e04f3859}, !- Handle
  Air Loop HVAC Zone Mixer 1,             !- Name
  {e4efd485-46f3-4768-9360-bd49050e1b4e}, !- Outlet Node Name
  {b9b1f6e2-7460-4c95-9bab-085395099216}; !- Inlet Node Name 1

OS:Connection,
  {f8f6ef5b-d6d9-44e9-870f-8d1a14ad81b1}, !- Handle
  {6cbada3a-f4d3-4cc5-80c8-1dc13a459dbc}, !- Name
  {28f79392-c855-4847-bb5f-056e38c4b199}, !- Source Object
  3,                                      !- Outlet Port
  {37dc9902-266b-4194-926d-139dc46a2cbe}, !- Target Object
  2;                                      !- Inlet Port

OS:Connection,
  {e4efd485-46f3-4768-9360-bd49050e1b4e}, !- Handle
  {b50b8211-b7d9-4218-b932-d86341336bad}, !- Name
  {07915a54-6c89-4236-9c83-bec7e04f3859}, !- Source Object
  2,                                      !- Outlet Port
  {a32490d8-109e-4bb4-b3b8-68bad12cb58d}, !- Target Object
  2;                                      !- Inlet Port

OS:Sizing:System,
  {cbc17328-543c-4115-96cd-11907dad2f34}, !- Handle
  {b855ed68-59ea-4f19-9045-10cc7d33b4b0}, !- AirLoop Name
  Sensible,                               !- Type of Load to Size On
  Autosize,                               !- Design Outdoor Air Flow Rate {m3/s}
  1,                                      !- Central Heating Maximum System Air Flow Ratio
  7,                                      !- Preheat Design Temperature {C}
  0.008,                                  !- Preheat Design Humidity Ratio {kg-H2O/kg-Air}
  12.8,                                   !- Precool Design Temperature {C}
  0.008,                                  !- Precool Design Humidity Ratio {kg-H2O/kg-Air}
  12.8,                                   !- Central Cooling Design Supply Air Temperature {C}
  40,                                     !- Central Heating Design Supply Air Temperature {C}
  NonCoincident,                          !- Sizing Option
  Yes,                                    !- 100% Outdoor Air in Cooling
  Yes,                                    !- 100% Outdoor Air in Heating
  0.0085,                                 !- Central Cooling Design Supply Air Humidity Ratio {kg-H2O/kg-Air}
  0.008,                                  !- Central Heating Design Supply Air Humidity Ratio {kg-H2O/kg-Air}
  DesignDay,                              !- Cooling Design Air Flow Method
  0,                                      !- Cooling Design Air Flow Rate {m3/s}
  DesignDay,                              !- Heating Design Air Flow Method
  0,                                      !- Heating Design Air Flow Rate {m3/s}
  ZoneSum,                                !- System Outdoor Air Method
  1,                                      !- Zone Maximum Outdoor Air Fraction {dimensionless}
  0.0099676501,                           !- Cooling Supply Air Flow Rate Per Floor Area {m3/s-m2}
  1,                                      !- Cooling Fraction of Autosized Cooling Supply Air Flow Rate
  3.9475456e-05,                          !- Cooling Supply Air Flow Rate Per Unit Cooling Capacity {m3/s-W}
  0.0099676501,                           !- Heating Supply Air Flow Rate Per Floor Area {m3/s-m2}
  1,                                      !- Heating Fraction of Autosized Heating Supply Air Flow Rate
  1,                                      !- Heating Fraction of Autosized Cooling Supply Air Flow Rate
  3.1588213e-05,                          !- Heating Supply Air Flow Rate Per Unit Heating Capacity {m3/s-W}
  CoolingDesignCapacity,                  !- Cooling Design Capacity Method
  autosize,                               !- Cooling Design Capacity {W}
  234.7,                                  !- Cooling Design Capacity Per Floor Area {W/m2}
  1,                                      !- Fraction of Autosized Cooling Design Capacity
  HeatingDesignCapacity,                  !- Heating Design Capacity Method
  autosize,                               !- Heating Design Capacity {W}
  157,                                    !- Heating Design Capacity Per Floor Area {W/m2}
  1,                                      !- Fraction of Autosized Heating Design Capacity
  OnOff;                                  !- Central Cooling Capacity Control Method

OS:AvailabilityManagerAssignmentList,
  {4a5afecd-de9d-44d2-b15d-37648416151b}, !- Handle
  Air Loop HVAC 1 AvailabilityManagerAssignmentList; !- Name

OS:Fan:ConstantVolume,
  {8a8ba8ca-a516-4ca9-b4cc-98bf7f974b7d}, !- Handle
  Fan Constant Volume 1,                  !- Name
  {ea9377c0-1987-4cab-ac69-290ed6b290ed}, !- Availability Schedule Name
  ,                                       !- Fan Total Efficiency
  500,                                    !- Pressure Rise {Pa}
  AutoSize,                               !- Maximum Flow Rate {m3/s}
  ,                                       !- Motor Efficiency
  ,                                       !- Motor In Airstream Fraction
  {6eb7cac9-84a2-4fe6-b543-f8b4f215349e}, !- Air Inlet Node Name
  {5e4ed295-af2e-4364-9daa-2c782e187f84}, !- Air Outlet Node Name
  ;                                       !- End-Use Subcategory

OS:Coil:Heating:Gas,
  {b0cb55a6-3dfc-42c8-bd76-481a9583bdd5}, !- Handle
  Coil Heating Gas 1,                     !- Name
  {ea9377c0-1987-4cab-ac69-290ed6b290ed}, !- Availability Schedule Name
  0.8,                                    !- Gas Burner Efficiency
  AutoSize,                               !- Nominal Capacity {W}
  {56e1f58b-c50c-4dc0-b34c-52cc33dba6a6}, !- Air Inlet Node Name
  {ef692c0a-48ce-4623-9f76-c9fcbd1f14c3}, !- Air Outlet Node Name
  ,                                       !- Temperature Setpoint Node Name
  0,                                      !- Parasitic Electric Load {W}
  ,                                       !- Part Load Fraction Correlation Curve Name
  0;                                      !- Parasitic Gas Load {W}

OS:Coil:Cooling:DX:SingleSpeed,
  {69aacea3-b005-4d49-bdc0-2af65646cc9d}, !- Handle
  Coil Cooling DX Single Speed 1,         !- Name
  {ea9377c0-1987-4cab-ac69-290ed6b290ed}, !- Availability Schedule Name
  autosize,                               !- Rated Total Cooling Capacity {W}
  autosize,                               !- Rated Sensible Heat Ratio
  3,                                      !- Rated COP {W/W}
  autosize,                               !- Rated Air Flow Rate {m3/s}
  773.3,                                  !- Rated Evaporator Fan Power Per Volume Flow Rate {W/(m3/s)}
  {58cea86c-0eee-4262-8ce4-8abfbbbc86e4}, !- Air Inlet Node Name
  {771b35a5-3e3b-426d-a4ce-d9ff25a53904}, !- Air Outlet Node Name
  {cf19bec5-c149-4acd-a443-d9ebc1ba97c7}, !- Total Cooling Capacity Function of Temperature Curve Name
  {cf899c17-55da-4815-9bbf-1a40a4059887}, !- Total Cooling Capacity Function of Flow Fraction Curve Name
  {bc464de1-b0c3-4b30-be37-1ce6b174db6e}, !- Energy Input Ratio Function of Temperature Curve Name
  {9a0375be-1b8f-4edc-88a6-635c834f806c}, !- Energy Input Ratio Function of Flow Fraction Curve Name
  {9d7a5ab3-dcf5-4a12-8c75-cb6f2cfabefd}, !- Part Load Fraction Correlation Curve Name
  ,                                       !- Nominal Time for Condensate Removal to Begin {s}
  ,                                       !- Ratio of Initial Moisture Evaporation Rate and Steady State Latent Capacity {dimensionless}
  ,                                       !- Maximum Cycling Rate {cycles/hr}
  ,                                       !- Latent Capacity Time Constant {s}
  ,                                       !- Condenser Air Inlet Node Name
  AirCooled,                              !- Condenser Type
  0,                                      !- Evaporative Condenser Effectiveness {dimensionless}
  Autosize,                               !- Evaporative Condenser Air Flow Rate {m3/s}
  Autosize,                               !- Evaporative Condenser Pump Rated Power Consumption {W}
  0,                                      !- Crankcase Heater Capacity {W}
  0,                                      !- Maximum Outdoor Dry-Bulb Temperature for Crankcase Heater Operation {C}
  ,                                       !- Supply Water Storage Tank Name
  ,                                       !- Condensate Collection Water Storage Tank Name
  0,                                      !- Basin Heater Capacity {W/K}
  10,                                     !- Basin Heater Setpoint Temperature {C}
  ;                                       !- Basin Heater Operating Schedule Name

OS:Curve:Biquadratic,