
OS:Version,
  {e39379ae-93eb-4e9c-9046-311c3ba28bf7}, !- Handle
  3.5.0;                                  !- Version Identifier

OS:BuildingStory,
  {239467ae-40dd-4e7f-8979-27db8338e8b6}, !- Handle
  Story 1,                                !- Name
  0,                                      !- Nominal Z Coordinate {m}
  4,                                      !- Nominal Floor to Floor Height {m}
  ,                                       !- Default Construction Set Name
  ,                                       !- Default Schedule Set Name
  ;                                       !- Group Rendering Name

OS:Space,
  {f896c6f0-3bb6-40a9-870b-d99f2f92fbd9}, !- Handle
  Story 1 Core Space,                     !- Name
  ,                                       !- Space Type Name
  ,                                       !- Default Construction Set Name
  ,                                       !- Default Schedule Set Name
  -0,                                     !- Direction of Relative North {deg}
  0,                                      !- X Origin {m}
  0,                                      !- Y Origin {m}
  0,                                      !- Z Origin {m}
  {239467ae-40dd-4e7f-8979-27db8338e8b6}, !- Building Story Name
  {28aa69cb-fcba-4089-932b-b8399001cca0}; !- Thermal Zone Name

OS:Surface,
  {69c4b4b6-75eb-4ba6-8ef6-2b5a9bf0e2f5}, !- Handle
  Story 1 Core Space Exterior Ground Floor, !- Name
  Floor,                                  !- Surface Type
  ,                                       !- Construction Name
  {f896c6f0-3bb6-40a9-870b-d99f2f92fbd9}, !- Space Name
  Ground,                                 !- Outside Boundary Condition
  ,                                       !- Outside Boundary Condition Object
  NoSun,                                  !- Sun Exposure
  NoWind,                                 !- Wind Exposure
  ,                                       !- View Factor to Ground
  ,                                       !- Number of Vertices
  0, 0, 0,                                !- X,Y,Z Vertex 1 {m}
  0, 50, 0,                               !- X,Y,Z Vertex 2 {m}
  100, 50, 0,                             !- X,Y,Z Vertex 3 {m}
  100, 0, 0;                              !- X,Y,Z Vertex 4 {m}

OS:Surface,
  {636ff8b8-adc8-4dde-b47b-9cf6b1dca678}, !- Handle
  Story 1 Core Space Exterior Wall 3,     !- Name
  Wall,                                   !- Surface Type
  ,                                       !- Construction Name
  {f896c6f0-3bb6-40a9-870b-d99f2f92fbd9}, !- Space Name
  Outdoors,                               !- Outside Boundary Condition
  ,                                       !- Outside Boundary Condition Object
  SunExposed,                             !- Sun Exposure
  WindExposed,                            !- Wind Exposure
  ,                                       !- View Factor to Ground
  ,                                       !- Number of Vertices
  0, 50, 4,                               !- X,Y,Z Vertex 1 {m}
  0, 50, 0,                               !- X,Y,Z Vertex 2 {m}
  0, 0, 0,                                !- X,Y,Z Vertex 3 {m}
  0, 0, 4;                                !- X,Y,Z Vertex 4 {m}

OS:Surface,
  {4dfd1d63-a9ef-4a74-a27d-80e776dbc73e}, !- Handle
  Story 1 Core Space Exterior Wall 2,     !- Name
  Wall,                                   !- Surface Type
  ,                                       !- Construction Name
  {f896c6f0-3bb6-40a9-870b-d99f2f92fbd9}, !- Space Name
  Outdoors,                               !- Outside Boundary Condition
  ,                                       !- Outside Boundary Condition Object
  SunExposed,                             !- Sun Exposure
  WindExposed,                            !- Wind Exposure
  ,                                       !- View Factor to Ground
  ,                                       !- Number of Vertices
  100, 50, 4,                             !- X,Y,Z Vertex 1 {m}
  100, 50, 0,                             !- X,Y,Z Vertex 2 {m}
  0, 50, 0,                               !- X,Y,Z Vertex 3 {m}
  0, 50, 4;                               !- X,Y,Z Vertex 4 {m}

OS:Surface,
  {98274a26-e908-4f1d-a507-2009518b213e}, !- Handle
  Story 1 Core Space Exterior Wall 1,     !- Name
  Wall,                                   !- Surface Type
  ,                                       !- Construction Name
  {f896c6f0-3bb6-40a9-870b-d99f2f92fbd9}, !- Space Name
  Outdoors,                               !- Outside Boundary Condition
  ,                                       !- Outside Boundary Condition Object
  SunExposed,                             !- Sun Exposure
  WindExposed,                            !- Wind Exposure
  ,                                       !- View Factor to Ground
  ,                                       !- Number of Vertices
  100, 0, 4,                              !- X,Y,Z Vertex 1 {m}
  100, 0, 0,                              !- X,Y,Z Vertex 2 {m}
  100, 50, 0,                             !- X,Y,Z Vertex 3 {m}
  100, 50, 4;                             !- X,Y,Z Vertex 4 {m}

OS:Surface,
  {393a90d9-b3aa-41b0-b7a8-9952d05fcacb}, !- Handle
  Story 1 Core Space Exterior Wall,       !- Name
  Wall,                                   !- Surface Type
  ,                                       !- Construction Name
  {f896c6f0-3bb6-40a9-870b-d99f2f92fbd9}, !- Space Name
  Outdoors,                               !- Outside Boundary Condition
  ,                                       !- Outside Boundary Condition Object
  SunExposed,                             !- Sun Exposure
  WindExposed,                            !- Wind Exposure
  ,                                       !- View Factor to Ground
  ,                                       !- Number of Vertices
  0, 0, 4,                                !- X,Y,Z Vertex 1 {m}
  0, 0, 0,                                !- X,Y,Z Vertex 2 {m}
  100, 0, 0,                              !- X,Y,Z Vertex 3 {m}
  100, 0, 4;                              !- X,Y,Z Vertex 4 {m}

OS:Surface,
  {0680e6c4-dc42-4e0d-b04a-78341d8a7357}, !- Handle
  Story 1 Core Space Exterior Roof,       !- Name
  RoofCeiling,                            !- Surface Type
  ,                                       !- Construction Name
  {f896c6f0-3bb6-40a9-870b-d99f2f92fbd9}, !- Space Name
  Outdoors,                               !- Outside Boundary Condition
  ,                                       !- Outside Boundary Condition Object
  SunExposed,                             !- Sun Exposure
  WindExposed,                            !- Wind Exposure
  ,                                       !- View Factor to Ground
  ,                                       !- Number of Vertices
  100, 0, 4,                              !- X,Y,Z Vertex 1 {m}
  100, 50, 4,                             !- X,Y,Z Vertex 2 {m}
  0, 50, 4,                               !- X,Y,Z Vertex 3 {m}
  0, 0, 4;                                !- X,Y,Z Vertex 4 {m}

OS:ThermalZone,
  {28aa69cb-fcba-4089-932b-b8399001cca0}, !- Handle
  Story 1 Core Thermal Zone,              !- Name
  ,                                       !- Multiplier
  ,                                       !- Ceiling Height {m}
  ,                                       !- Volume {m3}
  ,                                       !- Floor Area {m2}
  ,                                       !- Zone Inside Convection Algorithm
  ,                                       !- Zone Outside Convection Algorithm
  ,                                       !- Zone Conditioning Equipment List Name
  {88f1d756-f420-490b-bd64-3e55e133d048}, !- Zone Air Inlet Port List
  {e3ded617-9f27-4b1c-aff8-308686842117}, !- Zone Air Exhaust Port List
  {b5277db0-a712-40b6-aa8f-ef5cc03303d0}, !- Zone Air Node Name
  {bb51df42-e833-4718-956f-3efd293dc404}, !- Zone Return Air Port List
  ,                                       !- Primary Daylighting Control Name
  ,                                       !- Fraction of Zone Controlled by Primary Daylighting Control
  ,                                       !- Secondary Daylighting Control Name
  ,                                       !- Fraction of Zone Controlled by Secondary Daylighting Control
  ,                                       !- Illuminance Map Name
  ,                                       !- Group Rendering Name
  {84240044-4c10-4e7f-9221-92fd12289585}, !- Thermostat Name
  No;                                     !- Use Ideal Air Loads

OS:Node,
  {fbea7e95-cde3-4e9e-91d9-d1c3c3071951}, !- Handle
  Node 1,                                 !- Name
  {b5277db0-a712-40b6-aa8f-ef5cc03303d0}, !- Inlet Port
  ;                                       !- Outlet Port

OS:Connection,
  {b5277db0-a712-40b6-aa8f-ef5cc03303d0}, !- Handle
  {28aa69cb-fcba-4089-932b-b8399001cca0}, !- Source Object
  11,                                     !- Outlet Port
  {fbea7e95-cde3-4e9e-91d9-d1c3c3071951}, !- Target Object
  2;                                      !- Inlet Port

OS:PortList,
  {88f1d756-f420-490b-bd64-3e55e133d048}, !- Handle
  {28aa69cb-fcba-4089-932b-b8399001cca0}, !- HVAC Component
  {96416eb1-a302-451e-87ac-87ee99fbcc40}; !- Port 1

OS:PortList,
  {e3ded617-9f27-4b1c-aff8-308686842117}, !- Handle
  {28aa69cb-fcba-4089-932b-b8399001cca0}; !- HVAC Component

OS:PortList,
  {bb51df42-e833-4718-956f-3efd293dc404}, !- Handle
  {28aa69cb-fcba-4089-932b-b8399001cca0}, !- HVAC Component
  {da9a2973-7c1b-4930-bcf7-c3d2e9dfff06}; !- Port 1

OS:Sizing:Zone,
  {eff042ab-9e5d-438e-98fe-c45d2b79a044}, !- Handle
  {28aa69cb-fcba-4089-932b-b8399001cca0}, !- Zone or ZoneList Name
  SupplyAirTemperature,                   !- Zone Cooling Design Supply Air Temperature Input Method
  14,                                     !- Zone Cooling Design Supply Air Temperature {C}
  11.11,                                  !- Zone Cooling Design Supply Air Temperature Difference {deltaC}
  SupplyAirTemperature,                   !- Zone Heating Design Supply Air Temperature Input Method
  40,                                     !- Zone Heating Design Supply Air Temperature {C}
  11.11,                                  !- Zone Heating Design Supply Air Temperature Difference {deltaC}
  0.0085,                                 !- Zone Cooling Design Supply Air Humidity Ratio {kg-H2O/kg-air}
  0.008,                                  !- Zone Heating Design Supply Air Humidity Ratio {kg-H2O/kg-air}
  ,                                       !- Zone Heating Sizing Factor
  ,                                       !- Zone Cooling Sizing Factor
  DesignDay,                              !- Cooling Design Air Flow Method
  ,                                       !- Cooling Design Air Flow Rate {m3/s}
  ,                                       !- Cooling Minimum Air Flow per Zone Floor Area {m3/s-m2}
  ,                                       !- Cooling Minimum Air Flow {m3/s}
  ,                                       !- Cooling Minimum Air Flow Fraction
  DesignDay,                              !- Heating Design Air Flow Method
  ,                                       !- Heating Design Air Flow Rate {m3/s}
  ,                                       !- Heating Maximum Air Flow per Zone Floor Area {m3/s-m2}
  ,                                       !- Heating Maximum Air Flow {m3/s}
  ,                                       !- Heating Maximum Air Flow Fraction
  No,                                     !- Account for Dedicated Outdoor Air System
  NeutralSupplyAir,                       !- Dedicated Outdoor Air System Control Strategy
  autosize,                               !- Dedicated Outdoor Air Low Setpoint Temperature for Design {C}
  autosize,                               !- Dedicated Outdoor Air High Setpoint Temperature for Design {C}
  Sensible Load Only No Latent Load,      !- Zone Load Sizing Method
  HumidityRatioDifference,                !- Zone Latent Cooling Design Supply Air Humidity Ratio Input Method
  ,                                       !- Zone Dehumidification Design Supply Air Humidity Ratio {kgWater/kgDryAir}
  0.005,                                  !- Zone Cooling Design Supply Air Humidity Ratio Difference {kgWater/kgDryAir}
  HumidityRatioDifference,                !- Zone Latent Heating Design Supply Air Humidity Ratio Input Method
  ,                                       !- Zone Humidification Design Supply Air Humidity Ratio {kgWater/kgDryAir}
  0.005;                                  !- Zone Humidification Design Supply Air Humidity Ratio Difference {kgWater/kgDryAir}

OS:ZoneHVAC:EquipmentList,
  {cad3c5eb-9dd9-48db-96c0-c1bc49773d1f}, !- Handle
  Zone HVAC Equipment List 1,             !- Name
  {28aa69cb-fcba-4089-932b-b8399001cca0}, !- Thermal Zone
  ,                                       !- Load Distribution Scheme
  {b9205b27-a8ac-4d90-9d9f-97802a345a38}, !- Zone Equipment 1
  1,                                      !- Zone Equipment Cooling Sequence 1
  1,                                      !- Zone Equipment Heating or No-Load Sequence 1
  ,                                       !- Zone Equipment Sequential Cooling Fraction Schedule Name 1
  ;                                       !- Zone Equipment Sequential Heating Fraction Schedule Name 1

OS:SubSurface,
  {2cdb7b02-54ce-4641-a32d-363fa691a888}, !- Handle
  Story 1 Core Space Exterior Wall Window, !- Name
  FixedWindow,                            !- Sub Surface Type
  ,                                       !- Construction Name
  {393a90d9-b3aa-41b0-b7a8-9952d05fcacb}, !- Surface Name
  ,                                       !- Outside Boundary Condition Object
  ,                                       !- View Factor to Ground
  ,                                       !- Frame and Divider Name
  ,                                       !- Multiplier
  ,                                       !- Number of Vertices
  0.0254, 0, 2.60081321311226,            !- X,Y,Z Vertex 1 {m}
  0.0254, 0, 1,                           !- X,Y,Z Vertex 2 {m}
  99.9746, 0, 1,                          !- X,Y,Z Vertex 3 {m}
  99.9746, 0, 2.60081321311226;           !- X,Y,Z Vertex 4 {m}

OS:SubSurface,
  {473d753b-a19f-4425-ae68-cbe12fc10c4d}, !- Handle
  Story 1 Core Space Exterior Wall 1 Window, !- Name
  FixedWindow,                            !- Sub Surface Type
  ,                                       !- Construction Name
  {98274a26-e908-4f1d-a507-2009518b213e}, !- Surface Name
  ,                                       !- Outside Boundary Condition Object
  ,                                       !- View Factor to Ground
  ,                                       !- Frame and Divider Name
  ,                                       !- Multiplier
  ,                                       !- Number of Vertices
  100, 0.0254, 2.60162725328934,          !- X,Y,Z Vertex 1 {m}
  100, 0.0254, 1,                         !- X,Y,Z Vertex 2 {m}
  100, 49.9746, 1,                        !- X,Y,Z Vertex 3 {m}
  100, 49.9746, 2.60162725328934;         !- X,Y,Z Vertex 4 {m}

OS:SubSurface,
  {6f67948f-c17a-43a7-88d1-42e454837ad4}, !- Handle
  Story 1 Core Space Exterior Wall 2 Window, !- Name
  FixedWindow,                            !- Sub Surface Type
  ,                                       !- Construction Name
  {4dfd1d63-a9ef-4a74-a27d-80e776dbc73e}, !- Surface Name
  ,                                       !- Outside Boundary Condition Object
  ,                                       !- View Factor to Ground
  ,                                       !- Frame and Divider Name
  ,                                       !- Multiplier
  ,                                       !- Number of Vertices
  99.9746, 50, 2.60081321311226,          !- X,Y,Z Vertex 1 {m}
  99.9746, 50, 1,                         !- X,Y,Z Vertex 2 {m}
  0.0253999999999905, 50, 1,              !- X,Y,Z Vertex 3 {m}
  0.0253999999999905, 50, 2.60081321311226; !- X,Y,Z Vertex 4 {m}

OS:SubSurface,
  {5a89e9a7-d17c-4ec0-977f-d1e7992c5384}, !- Handle
  Story 1 Core Space Exterior Wall 3 Window, !- Name
  FixedWindow,                            !- Sub Surface Type
  ,                                       !- Construction Name
  {636ff8b8-adc8-4dde-b47b-9cf6b1dca678}, !- Surface Name
  ,                                       !- Outside Boundary Condition Object
  ,                                       !- View Factor to Ground
  ,                                       !- Frame and Divider Name
  ,                                       !- Multiplier
  ,                                       !- Number of Vertices
  0, 49.9746, 2.60162725328934,           !- X,Y,Z Vertex 1 {m}
  0, 49.9746, 1,                          !- X,Y,Z Vertex 2 {m}
  0, 0.0254000000000048, 1,               !- X,Y,Z Vertex 3 {m}
  0, 0.0254000000000048, 2.60162725328934; !- X,Y,Z Vertex 4 {m}

OS:Schedule:Ruleset,
  {fa5416f8-2c2b-441c-953a-873013a592a2}, !- Handle
  Cooling Sch,                            !- Name
  {1f58a071-0faa-4d75-9219-ddb23743d7f2}, !- Schedule Type Limits Name
  {ca14b40d-6752-43d1-8b98-f152da20882b}; !- Default Day Schedule Name

OS:Schedule:Day,
  {ca14b40d-6752-43d1-8b98-f152da20882b}, !- Handle
  Cooling Sch Default,                    !- Name
  {1f58a071-0faa-4d75-9219-ddb23743d7f2}, !- Schedule Type Limits Name
  ,                                       !- Interpolate to Timestep
  24,                                     !- Hour 1
  0,                                      !- Minute 1
  26;                                     !- Value Until Time 1

OS:Schedule:Ruleset,
  {b36e8d43-d87a-4245-b79f-9d3baa219808}, !- Handle
  Heating Sch,                            !- Name
  {1f58a071-0faa-4d75-9219-ddb23743d7f2}, !- Schedule Type Limits Name
  {76617ec7-9e62-4f92-829a-289764be37c9}; !- Default Day Schedule Name

OS:Schedule:Day,
  {76617ec7-9e62-4f92-829a-289764be37c9}, !- Handle
  Heating Sch Default,                    !- Name
  {1f58a071-0faa-4d75-9219-ddb23743d7f2}, !- Schedule Type Limits Name
  ,                                       !- Interpolate to Timestep
  24,                                     !- Hour 1
  0,                                      !- Minute 1
  19;                                     !- Value Until Time 1

OS:ThermostatSetpoint:DualSetpoint,
  {84240044-4c10-4e7f-9221-92fd12289585}, !- Handle
  Thermostat Setpoint Dual Setpoint 1,    !- Name
  {b36e8d43-d87a-4245-b79f-9d3baa219808}, !- Heating Setpoint Temperature Schedule Name
  {fa5416f8-2c2b-441c-953a-873013a592a2}; !- Cooling Setpoint Temperature Schedule Name

OS:ScheduleTypeLimits,
  {1f58a071-0faa-4d75-9219-ddb23743d7f2}, !- Handle
  Temperature,                            !- Name
  ,                                       !- Lower Limit Value
  ,                                       !- Upper Limit Value
  Continuous,                             !- Numeric Type
  Temperature;                            !- Unit Type

OS:DefaultConstructionSet,
  {f33559a4-1ed1-4fa3-8bc1-818f049f06fb}, !- Handle
  ASHRAE_189.1-2009_ClimateZone 4-5 (mdoff)_ConstSet, !- Name
  {d7862bfc-f5eb-48dc-bc94-b58dc715a7c1}, !- Default Exterior Surface Constructions Name
  {177ca8ff-9078-4332-877d-40bb407a796f}, !- Default Interior Surface Constructions Name
  {5dbb024b-94c6-414f-92ff-bc4604c99f10}, !- Default Ground Contact Surface Constructions Name
  {8425f0e5-4361-4a97-a8ff-1c605a393be7}, !- Default Exterior SubSurface Constructions Name
  {83b8e682-d893-4ecb-b760-a4eaf53f819e}, !- Default Interior SubSurface Constructions Name
  {f963a0cd-77dc-429c-be54-f5807de23495}, !- Interior Partition Construction Name
  ,                                       !- Space Shading Construction Name
  ,                                       !- Building Shading Construction Name
  ,                                       !- Site Shading Construction Name
  ;                                       !- Adiabatic Surface Construction Name

OS:DefaultSurfaceConstructions,
  {d7862bfc-f5eb-48dc-bc94-b58dc715a7c1}, !- Handle
  ASHRAE_189.1-2009_ClimateZone 4-5 (mdoff)_Exterior_DefSurfCons, !- Name
  {39d2b849-6e23-4f69-bab9-15c852ea6547}, !- Floor Construction Name
  {ecf785bf-6ec7-441b-9b82-5551cf39e23d}, !- Wall Construction Name
  {9bb0b3af-322e-4654-bfc0-f9ebe92ac202}; !- Roof Ceiling Construction Name

OS:DefaultSurfaceConstructions,
  {177ca8ff-9078-4332-877d-40bb407a796f}, !- Handle
  000_Interior_DefSurfCons,               !- Name
  {3b7b4c64-0999-4b90-a3ca-97877572d180}, !- Floor Construction Name
  {c8512273-05a2-411e-9748-44ca23ed2d4e}, !- Wall Construction Name
  {92e43e8a-7bb3-4aa7-99b5-3850826a27ec}; !- Roof Ceiling Construction Name

OS:DefaultSurfaceConstructions,
  {5dbb024b-94c6-414f-92ff-bc4604c99f10}, !- Handle
  000_Ground_DefSurfCons,                 !- Name
  {39d2b849-6e23-4f69-bab9-15c852ea6547}, !- Floor Construction Name
  {39d2b849-6e23-4f69-bab9-15c852ea6547}, !- Wall Construction Name
  {39d2b849-6e23-4f69-bab9-15c852ea6547}; !- Roof Ceiling Construction Name

OS:DefaultSubSurfaceConstructions,
  {8425f0e5-4361-4a97-a8ff-1c605a393be7}, !- Handle
  ASHRAE_189.1-2009_ClimateZone 4-5 (mdoff)_Exterior_DefSubCons, !- Name
  {aeee4bf0-263e-46cd-b0c6-49ef070e75d8}, !- Fixed Window Construction Name
  {aeee4bf0-263e-46cd-b0c6-49ef070e75d8}, !- Operable Window Construction Name
  {90fb24a3-72af-422c-9738-f8121117ebdf}, !- Door Construction Name
  {b40c1f13-c2ec-4dbb-9d73-b74884e56f98}, !- Glass Door Construction Name
  ,                                       !- Overhead Door Construction Name
  {b40c1f13-c2ec-4dbb-9d73-b74884e56f98}, !- Skylight Construction Name
  {107bfb99-d306-4b43-993b-d1f097ac5df0}, !- Tubular Daylight Dome Construction Name
  {107bfb99-d306-4b43-993b-d1f097ac5df0}; !- Tubular Daylight Diffuser Construction Name

OS:DefaultSubSurfaceConstructions,
  {83b8e682-d893-4ecb-b760-a4eaf53f819e}, !- Handle
  000_Interior_DefSubCons,                !- Name
  {107bfb99-d306-4b43-993b-d1f097ac5df0}, !- Fixed Window Construction Name
  {107bfb99-d306-4b43-993b-d1f097ac5df0}, !- Operable Window Construction Name
  {8ab8f450-ba1a-45e2-9c6b-06a197372ef9}, !- Door Construction Name
  {b40c1f13-c2ec-4dbb-9d73-b74884e56f98}, !- Glass Door Construction Name
  ,                                       !- Overhead Door Construction Name
  {b40c1f13-c2ec-4dbb-9d73-b74884e56f98}, !- Skylight Construction Name
  {107bfb99-d306-4b43-993b-d1f097ac5df0}, !- Tubular Daylight Dome Construction Name
  {107bfb99-d306-4b43-993b-d1f097ac5df0}; !- Tubular Daylight Diffuser Construction Name

OS:Construction,
  {f963a0cd-77dc-429c-be54-f5807de23495}, !- Handle
  000_Interior Partition,                 !- Name
  ,                                       !- Surface Rendering Name
  {dab9d193-49e5-4ea0-a7f3-680b5fa464ee}; !- Layer 1

OS:Construction,
  {39d2b849-6e23-4f69-bab9-15c852ea6547}, !- Handle
  000_ExtSlabCarpet_4in_ClimateZone 1-8,  !- Name
  ,                                       !- Surface Rendering Name
  {5ec269be-722e-4486-8b05-7c102abe7497}, !- Layer 1
  {880cd6de-5b30-48ef-a6e0-432ef6bbcbf5}; !- Layer 2

OS:Construction,
  {ecf785bf-6ec7-441b-9b82-5551cf39e23d}, !- Handle
  ASHRAE_189.1-2009_ExtWall_SteelFrame_ClimateZone 4-8, !- Name
  ,                                       !- Surface Rendering Name
  {4b3e3386-d7fd-4a56-8595-cf9815dd5d32}, !- Layer 1
  {3ed74a81-d748-4b37-bb09-e4d6a9e26b08}, !- Layer 2
  {d21327e9-cca5-4a5b-bd28-53deeeaa5de8}; !- Layer 3

OS:Construction,
  {9bb0b3af-322e-4654-bfc0-f9ebe92ac202}, !- Handle
  ASHRAE_189.1-2009_ExtRoof_IEAD_ClimateZone 2-5, !- Name
  ,                                       !- Surface Rendering Name
  {d47d5b7b-dc7e-46ba-8dd8-0df12081325c}, !- Layer 1
  {d3ece5da-2bcd-493e-b1a0-ed0794e6c7f9}, !- Layer 2
  {efadc798-61cd-4043-8c68-98fcb7f875eb}; !- Layer 3

OS:Construction,
  {3b7b4c64-0999-4b90-a3ca-97877572d180}, !- Handle
  000_Interior Floor,                     !- Name
  ,                                       !- Surface Rendering Name
  {04d56936-ec40-468e-bfdd-dfd46823f296}, !- Layer 1
  {0e5886b0-575a-4a14-916b-1cea5fbdcff7}, !- Layer 2
  {4c05f2f3-a900-47b2-97fc-d1c7c6cc9356}; !- Layer 3

OS:Construction,
  {c8512273-05a2-411e-9748-44ca23ed2d4e}, !- Handle
  000_Interior Wall,                      !- Name
  ,                                       !- Surface Rendering Name
  {1b86a483-c522-4aef-acee-83c7d2207e4c}, !- Layer 1
  {7ab181e2-bb63-4f1d-9566-aae44bcf3d21}, !- Layer 2
  {1b86a483-c522-4aef-acee-83c7d2207e4c}; !- Layer 3

OS:Construction,
  {92e43e8a-7bb3-4aa7-99b5-3850826a27ec}, !- Handle
  000_Interior Ceiling,                   !- Name
  ,                                       !- Surface Rendering Name
  {4c05f2f3-a900-47b2-97fc-d1c7c6cc9356}, !- Layer 1
  {0e5886b0-575a-4a14-916b-1cea5fbdcff7}, !- Layer 2
  {04d56936-ec40-468e-bfdd-dfd46823f296}; !- Layer 3

OS:Construction,
  {aeee4bf0-263e-46cd-b0c6-49ef070e75d8}, !- Handle
  ASHRAE_189.1-2009_ExtWindow_ClimateZone 4-5, !- Name
  ,                                       !- Surface Rendering Name
  {766b34f8-14c5-4f0b-9a1b-b144dc3ca57a}; !- Layer 1

OS:Construction,
  {90fb24a3-72af-422c-9738-f8121117ebdf}, !- Handle
  000_Exterior Door,                      !- Name
  ,                                       !- Surface Rendering Name
  {a6ed0819-bbf9-492f-baad-608293d8e35e}, !- Layer 1
  {5db01030-6400-4de7-a8e6-eb08e8752d7b}; !- Layer 2

OS:Construction,
  {b40c1f13-c2ec-4dbb-9d73-b74884e56f98}, !- Handle
  000_Exterior Window,                    !- Name
  ,                                       !- Surface Rendering Name
  {56808e28-908d-4470-b14a-133553a09d7a}, !- Layer 1
  {2f403e47-1aac-4abe-ba31-d555260ce3cf}, !- Layer 2
  {56808e28-908d-4470-b14a-133553a09d7a}; !- Layer 3

OS:Construction,
  {107bfb99-d306-4b43-993b-d1f097ac5df0}, !- Handle
  000_Interior Window,                    !- Name
  ,                                       !- Surface Rendering Name
  {56808e28-908d-4470-b14a-133553a09d7a}; !- Layer 1

OS:Construction,
  {8ab8f450-ba1a-45e2-9c6b-06a197372ef9}, !- Handle
  000_Interior Door,                      !- Name
  ,                                       !- Surface Rendering Name
  {dab9d193-49e5-4ea0-a7f3-680b5fa464ee}; !- Layer 1

OS:Material,
  {dab9d193-49e5-4ea0-a7f3-680b5fa464ee}, !- Handle
  000_G05 25mm wood,                      !- Name
  MediumSmooth,                           !- Roughness
  0.025399999999999999,                   !- Thickness {m}
  0.14999999999999999,                    !- Conductivity {W/m-K}
  608,                                    !- Density {kg/m3}
  1630;                                   !- Specific Heat {J/kg-K}

OS:Material,
  {5ec269be-722e-4486-8b05-7c102abe7497}, !- Handle
  MAT-CC05 4 HW CONCRETE,                 !- Name
  Rough,                                  !- Roughness
  0.1016,                                 !- Thickness {m}
  1.3109999999999999,                     !- Conductivity {W/m-K}
  2240,                                   !- Density {kg/m3}
  836.8,                                  !- Specific Heat {J/kg-K}
  0.90000000000000002,                    !- Thermal Absorptance
  0.69999999999999996,                    !- Solar Absorptance
  0.69999999999999996;                    !- Visible Absorptance

OS:Material:NoMass,
  {880cd6de-5b30-48ef-a6e0-432ef6bbcbf5}, !- Handle
  CP02 CARPET PAD,                        !- Name
  VeryRough,                              !- Roughness
  0.2165,                                 !- Thermal Resistance {m2-K/W}
  0.90000000000000002,                    !- Thermal Absorptance
  0.69999999999999996,                    !- Solar Absorptance
  0.80000000000000004;                    !- Visible Absorptance

OS:Material:NoMass,
  {4b3e3386-d7fd-4a56-8595-cf9815dd5d32}, !- Handle
  MAT-SHEATH,                             !- Name
  Rough,                                  !- Roughness
  0.36259999999999998,                    !- Thermal Resistance {m2-K/W}
  0.90000000000000002,                    !- Thermal Absorptance
  0.69999999999999996,                    !- Solar Absorptance
  0.69999999999999996;                    !- Visible Absorptance

OS:Material,
  {3ed74a81-d748-4b37-bb09-e4d6a9e26b08}, !- Handle
  Wall Insulation [39],                   !- Name
  MediumRough,                            !- Roughness
  0.11840000000000001,                    !- Thickness {m}
  0.044999999999999998,                   !- Conductivity {W/m-K}
  265,                                    !- Density {kg/m3}
  836.8,                                  !- Specific Heat {J/kg-K}
  0.90000000000000002,                    !- Thermal Absorptance
  0.69999999999999996,                    !- Solar Absorptance
  0.69999999999999996;                    !- Visible Absorptance

OS:Material,
  {d21327e9-cca5-4a5b-bd28-53deeeaa5de8}, !- Handle
  1/2IN Gypsum,                           !- Name
  Smooth,                                 !- Roughness
  0.012699999999999999,                   !- Thickness {m}
  0.16,                                   !- Conductivity {W/m-K}
  784.89999999999998,                     !- Density {kg/m3}
  830,                                    !- Specific Heat {J/kg-K}
  0.90000000000000002,                    !- Thermal Absorptance
  0.92000000000000004,                    !- Solar Absorptance
  0.92000000000000004;                    !- Visible Absorptance

OS:Material,
  {d47d5b7b-dc7e-46ba-8dd8-0df12081325c}, !- Handle
  Roof Membrane,                          !- Name
  VeryRough,                              !- Roughness
  0.0094999999999999998,                  !- Thickness {m}
  0.16,                                   !- Conductivity {W/m-K}
  1121.29,                                !- Density {kg/m3}
  1460,                                   !- Specific Heat {J/kg-K}
  0.90000000000000002,                    !- Thermal Absorptance
  0.69999999999999996,                    !- Solar Absorptance
  0.69999999999999996;                    !- Visible Absorptance

OS:Material,