
OS:Version,
  {14a04cf2-72e1-443b-8983-42ee986acb50}, !- Handle
  3.1.0;                                  !- Version Identifier

OS:BuildingStory,
  {f5afcc1d-bf11-4773-a688-21c2a4c3927a}, !- Handle
  Story 1,                                !- Name
  0,                                      !- Nominal Z Coordinate {m}
  4,                                      !- Nominal Floor to Floor Height {m}
  ,                                       !- Default Construction Set Name
  ,                                       !- Default Schedule Set Name
  ;                                       !- Group Rendering Name

OS:Space,
  {76a0b33b-2865-48ac-b9ab-71a2ab3d9da2}, !- Handle
  Story 1 Core Space,                     !- Name
  ,                                       !- Space Type Name
  ,                                       !- Default Construction Set Name
  ,                                       !- Default Schedule Set Name
  -0,                                     !- Direction of Relative North {deg}
  0,                                      !- X Origin {m}
  0,                                      !- Y Origin {m}
  0,                                      !- Z Origin {m}
  {f5afcc1d-bf11-4773-a688-21c2a4c3927a}, !- Building Story Name
  {cf78eb5b-5992-4f90-9ea0-1c4eefbbd65f}; !- Thermal Zone Name

OS:Surface,
  {4e701618-237b-4c9a-ad97-52392527a3e6}, !- Handle
  Surface 1,                              !- Name
  Floor,                                  !- Surface Type
  ,                                       !- Construction Name
  {76a0b33b-2865-48ac-b9ab-71a2ab3d9da2}, !- Space Name
  Ground,                                 !- Outside Boundary Condition
  ,                                       !- Outside Boundary Condition Object
  NoSun,                                  !- Sun Exposure
  NoWind,                                 !- Wind Exposure
  ,                                       !- View Factor to Ground
  ,                                       !- Number of Vertices
  0, 0, 0,                                !- X,Y,Z Vertex 1 {m}
  0, 50, 0,                               !- X,Y,Z Vertex 2 {m}
  100, 50, 0,                             !- X,Y,Z Vertex 3 {m}
  100, 0, 0;                              !- X,Y,Z Vertex 4 {m}

OS:Surface,
  {87b1efb8-ade1-47d6-b0a6-198bf857d0b4}, !- Handle
  Surface 2,                              !- Name
  Wall,                                   !- Surface Type
  ,                                       !- Construction Name
  {76a0b33b-2865-48ac-b9ab-71a2ab3d9da2}, !- Space Name
  Outdoors,                               !- Outside Boundary Condition
  ,                                       !- Outside Boundary Condition Object
  SunExposed,                             !- Sun Exposure
  WindExposed,                            !- Wind Exposure
  ,                                       !- View Factor to Ground
  ,                                       !- Number of Vertices
  0, 50, 4,                               !- X,Y,Z Vertex 1 {m}
  0, 50, 0,                               !- X,Y,Z Vertex 2 {m}
  0, 0, 0,                                !- X,Y,Z Vertex 3 {m}
  0, 0, 4;                                !- X,Y,Z Vertex 4 {m}

OS:Surface,
  {3e8ce16f-16b8-46e3-abb5-13dcaec71bdc}, !- Handle
  Surface 3,                              !- Name
  Wall,                                   !- Surface Type
  ,                                       !- Construction Name
  {76a0b33b-2865-48ac-b9ab-71a2ab3d9da2}, !- Space Name
  Outdoors,                               !- Outside Boundary Condition
  ,                                       !- Outside Boundary Condition Object
  SunExposed,                             !- Sun Exposure
  WindExposed,                            !- Wind Exposure
  ,                                       !- View Factor to Ground
  ,                                       !- Number of Vertices
  100, 50, 4,                             !- X,Y,Z Vertex 1 {m}
  100, 50, 0,                             !- X,Y,Z Vertex 2 {m}
  0, 50, 0,                               !- X,Y,Z Vertex 3 {m}
  0, 50, 4;                               !- X,Y,Z Vertex 4 {m}

OS:Surface,
  {46faeba3-ad2c-4992-9215-369a432e8160}, !- Handle
  Surface 4,                              !- Name
  Wall,                                   !- Surface Type
  ,                                       !- Construction Name
  {76a0b33b-2865-48ac-b9ab-71a2ab3d9da2}, !- Space Name
  Outdoors,                               !- Outside Boundary Condition
  ,                                       !- Outside Boundary Condition Object
  SunExposed,                             !- Sun Exposure
  WindExposed,                            !- Wind Exposure
  ,                                       !- View Factor to Ground
  ,                                       !- Number of Vertices
  100, 0, 4,                              !- X,Y,Z Vertex 1 {m}
  100, 0, 0,                              !- X,Y,Z Vertex 2 {m}
  100, 50, 0,                             !- X,Y,Z Vertex 3 {m}
  100, 50, 4;                             !- X,Y,Z Vertex 4 {m}

OS:Surface,
  {4ec592d9-12c4-4278-89a9-49d58d2d2619}, !- Handle
  Surface 5,                              !- Name
  Wall,                                   !- Surface Type
  ,                                       !- Construction Name
  {76a0b33b-2865-48ac-b9ab-71a2ab3d9da2}, !- Space Name
  Outdoors,                               !- Outside Boundary Condition
  ,                                       !- Outside Boundary Condition Object
  SunExposed,                             !- Sun Exposure
  WindExposed,                            !- Wind Exposure
  ,                                       !- View Factor to Ground
  ,                                       !- Number of Vertices
  0, 0, 4,                                !- X,Y,Z Vertex 1 {m}
  0, 0, 0,                                !- X,Y,Z Vertex 2 {m}
  100, 0, 0,                              !- X,Y,Z Vertex 3 {m}
  100, 0, 4;                              !- X,Y,Z Vertex 4 {m}

OS:Surface,
  {59bb8a17-93d8-4bb0-91f4-27ed2be772b1}, !- Handle
  Surface 6,                              !- Name
  RoofCeiling,                            !- Surface Type
  ,                                       !- Construction Name
  {76a0b33b-2865-48ac-b9ab-71a2ab3d9da2}, !- Space Name
  Surface,                                !- Outside Boundary Condition
  {a0f1dbea-c928-4814-b0c8-48bdc35cb27b}, !- Outside Boundary Condition Object
  NoSun,                                  !- Sun Exposure
  NoWind,                                 !- Wind Exposure
  ,                                       !- View Factor to Ground
  ,                                       !- Number of Vertices
  100, 0, 4,                              !- X,Y,Z Vertex 1 {m}
  100, 50, 4,                             !- X,Y,Z Vertex 2 {m}
  0, 50, 4,                               !- X,Y,Z Vertex 3 {m}
  0, 0, 4;                                !- X,Y,Z Vertex 4 {m}

OS:BuildingStory,
  {10eb3371-98f3-4a03-befd-8aca5d58ec93}, !- Handle
  Story 2,                                !- Name
  4,                                      !- Nominal Z Coordinate {m}
  4,                                      !- Nominal Floor to Floor Height {m}
  ,                                       !- Default Construction Set Name
  ,                                       !- Default Schedule Set Name
  ;                                       !- Group Rendering Name

OS:Space,
  {8b7a85d0-3428-48ca-9f49-29371eabdddc}, !- Handle
  Story 2 Core Space,                     !- Name
  ,                                       !- Space Type Name
  ,                                       !- Default Construction Set Name
  ,                                       !- Default Schedule Set Name
  -0,                                     !- Direction of Relative North {deg}
  0,                                      !- X Origin {m}
  0,                                      !- Y Origin {m}
  4,                                      !- Z Origin {m}
  {10eb3371-98f3-4a03-befd-8aca5d58ec93}, !- Building Story Name
  {07247c03-fa43-491a-886f-09b2e0e1e346}; !- Thermal Zone Name

OS:Surface,
  {a0f1dbea-c928-4814-b0c8-48bdc35cb27b}, !- Handle
  Surface 7,                              !- Name
  Floor,                                  !- Surface Type
  ,                                       !- Construction Name
  {8b7a85d0-3428-48ca-9f49-29371eabdddc}, !- Space Name
  Surface,                                !- Outside Boundary Condition
  {59bb8a17-93d8-4bb0-91f4-27ed2be772b1}, !- Outside Boundary Condition Object
  NoSun,                                  !- Sun Exposure
  NoWind,                                 !- Wind Exposure
  ,                                       !- View Factor to Ground
  ,                                       !- Number of Vertices
  0, 0, 0,                                !- X,Y,Z Vertex 1 {m}
  0, 50, 0,                               !- X,Y,Z Vertex 2 {m}
  100, 50, 0,                             !- X,Y,Z Vertex 3 {m}
  100, 0, 0;                              !- X,Y,Z Vertex 4 {m}

OS:Surface,
  {ca13481d-ff36-45a4-aa9e-8ca83c06f2ff}, !- Handle
  Surface 8,                              !- Name
  Wall,                                   !- Surface Type
  ,                                       !- Construction Name
  {8b7a85d0-3428-48ca-9f49-29371eabdddc}, !- Space Name
  Outdoors,                               !- Outside Boundary Condition
  ,                                       !- Outside Boundary Condition Object
  SunExposed,                             !- Sun Exposure
  WindExposed,                            !- Wind Exposure
  ,                                       !- View Factor to Ground
  ,                                       !- Number of Vertices
  0, 50, 4,                               !- X,Y,Z Vertex 1 {m}
  0, 50, 0,                               !- X,Y,Z Vertex 2 {m}
  0, 0, 0,                                !- X,Y,Z Vertex 3 {m}
  0, 0, 4;                                !- X,Y,Z Vertex 4 {m}

OS:Surface,
  {9856b7e2-071b-4609-b1a3-38d0959220d7}, !- Handle
  Surface 9,                              !- Name
  Wall,                                   !- Surface Type
  ,                                       !- Construction Name
  {8b7a85d0-3428-48ca-9f49-29371eabdddc}, !- Space Name
  Outdoors,                               !- Outside Boundary Condition
  ,                                       !- Outside Boundary Condition Object
  SunExposed,                             !- Sun Exposure
  WindExposed,                            !- Wind Exposure
  ,                                       !- View Factor to Ground
  ,                                       !- Number of Vertices
  100, 50, 4,                             !- X,Y,Z Vertex 1 {m}
  100, 50, 0,                             !- X,Y,Z Vertex 2 {m}
  0, 50, 0,                               !- X,Y,Z Vertex 3 {m}
  0, 50, 4;                               !- X,Y,Z Vertex 4 {m}

OS:Surface,
  {413df5f2-beff-4f92-99ba-0367543e7af8}, !- Handle
  Surface 10,                             !- Name
  Wall,                                   !- Surface Type
  ,                                       !- Construction Name
  {8b7a85d0-3428-48ca-9f49-29371eabdddc}, !- Space Name
  Outdoors,                               !- Outside Boundary Condition
  ,                                       !- Outside Boundary Condition Object
  SunExposed,                             !- Sun Exposure
  WindExposed,                            !- Wind Exposure
  ,                                       !- View Factor to Ground
  ,                                       !- Number of Vertices
  100, 0, 4,                              !- X,Y,Z Vertex 1 {m}
  100, 0, 0,                              !- X,Y,Z Vertex 2 {m}
  100, 50, 0,                             !- X,Y,Z Vertex 3 {m}
  100, 50, 4;                             !- X,Y,Z Vertex 4 {m}

OS:Surface,
  {91c3409b-ca32-4d7f-9ca9-c4bbcfed7ab4}, !- Handle
  Surface 11,                             !- Name
  Wall,                                   !- Surface Type
  ,                                       !- Construction Name
  {8b7a85d0-3428-48ca-9f49-29371eabdddc}, !- Space Name
  Outdoors,                               !- Outside Boundary Condition
  ,                                       !- Outside Boundary Condition Object
  SunExposed,                             !- Sun Exposure
  WindExposed,                            !- Wind Exposure
  ,                                       !- View Factor to Ground
  ,                                       !- Number of Vertices
  0, 0, 4,                                !- X,Y,Z Vertex 1 {m}
  0, 0, 0,                                !- X,Y,Z Vertex 2 {m}
  100, 0, 0,                              !- X,Y,Z Vertex 3 {m}
  100, 0, 4;                              !- X,Y,Z Vertex 4 {m}

OS:Surface,
  {4babca84-9082-4b86-8123-5ee46c14efd0}, !- Handle
  Surface 12,                             !- Name
  RoofCeiling,                            !- Surface Type
  ,                                       !- Construction Name
  {8b7a85d0-3428-48ca-9f49-29371eabdddc}, !- Space Name
  Surface,                                !- Outside Boundary Condition
  {6b9ec279-05ca-4148-a0b5-6ae7cbeae2bd}, !- Outside Boundary Condition Object
  NoSun,                                  !- Sun Exposure
  NoWind,                                 !- Wind Exposure
  ,                                       !- View Factor to Ground
  ,                                       !- Number of Vertices
  100, 0, 4,                              !- X,Y,Z Vertex 1 {m}
  100, 50, 4,                             !- X,Y,Z Vertex 2 {m}
  0, 50, 4,                               !- X,Y,Z Vertex 3 {m}
  0, 0, 4;                                !- X,Y,Z Vertex 4 {m}

OS:BuildingStory,
  {49abaa4e-aaa5-404c-ad8a-839ba20a1696}, !- Handle
  Story 3,                                !- Name
  8,                                      !- Nominal Z Coordinate {m}
  4,                                      !- Nominal Floor to Floor Height {m}
  ,                                       !- Default Construction Set Name
  ,                                       !- Default Schedule Set Name
  ;                                       !- Group Rendering Name

OS:Space,
  {7096b767-d8be-42c4-a0a4-df2753e8d353}, !- Handle
  Story 3 Core Space,                     !- Name
  ,                                       !- Space Type Name
  ,                                       !- Default Construction Set Name
  ,                                       !- Default Schedule Set Name
  -0,                                     !- Direction of Relative North {deg}
  0,                                      !- X Origin {m}
  0,                                      !- Y Origin {m}
  8,                                      !- Z Origin {m}
  {49abaa4e-aaa5-404c-ad8a-839ba20a1696}, !- Building Story Name
  {5cfb1d4b-f2e1-43c3-9953-1570b8d9d390}; !- Thermal Zone Name

OS:Surface,
  {6b9ec279-05ca-4148-a0b5-6ae7cbeae2bd}, !- Handle
  Surface 13,                             !- Name
  Floor,                                  !- Surface Type
  ,                                       !- Construction Name
  {7096b767-d8be-42c4-a0a4-df2753e8d353}, !- Space Name
  Surface,                                !- Outside Boundary Condition
  {4babca84-9082-4b86-8123-5ee46c14efd0}, !- Outside Boundary Condition Object
  NoSun,                                  !- Sun Exposure
  NoWind,                                 !- Wind Exposure
  ,                                       !- View Factor to Ground
  ,                                       !- Number of Vertices
  0, 0, 0,                                !- X,Y,Z Vertex 1 {m}
  0, 50, 0,                               !- X,Y,Z Vertex 2 {m}
  100, 50, 0,                             !- X,Y,Z Vertex 3 {m}
  100, 0, 0;                              !- X,Y,Z Vertex 4 {m}

OS:Surface,
  {2969235a-e2b0-41f8-a6ce-88f30b65f10b}, !- Handle
  Surface 14,                             !- Name
  Wall,                                   !- Surface Type
  ,                                       !- Construction Name
  {7096b767-d8be-42c4-a0a4-df2753e8d353}, !- Space Name
  Outdoors,                               !- Outside Boundary Condition
  ,                                       !- Outside Boundary Condition Object
  SunExposed,                             !- Sun Exposure
  WindExposed,                            !- Wind Exposure
  ,                                       !- View Factor to Ground
  ,                                       !- Number of Vertices
  0, 50, 4,                               !- X,Y,Z Vertex 1 {m}
  0, 50, 0,                               !- X,Y,Z Vertex 2 {m}
  0, 0, 0,                                !- X,Y,Z Vertex 3 {m}
  0, 0, 4;                                !- X,Y,Z Vertex 4 {m}

OS:Surface,
  {482d5fda-e261-4544-b12e-0bfc56cd9c71}, !- Handle
  Surface 15,                             !- Name
  Wall,                                   !- Surface Type
  ,                                       !- Construction Name
  {7096b767-d8be-42c4-a0a4-df2753e8d353}, !- Space Name
  Outdoors,                               !- Outside Boundary Condition
  ,                                       !- Outside Boundary Condition Object
  SunExposed,                             !- Sun Exposure
  WindExposed,                            !- Wind Exposure
  ,                                       !- View Factor to Ground
  ,                                       !- Number of Vertices
  100, 50, 4,                             !- X,Y,Z Vertex 1 {m}
  100, 50, 0,                             !- X,Y,Z Vertex 2 {m}
  0, 50, 0,                               !- X,Y,Z Vertex 3 {m}
  0, 50, 4;                               !- X,Y,Z Vertex 4 {m}

OS:Surface,
  {37286494-9098-42ad-bc0b-40c358e0cd0c}, !- Handle
  Surface 16,                             !- Name
  Wall,                                   !- Surface Type
  ,                                       !- Construction Name
  {7096b767-d8be-42c4-a0a4-df2753e8d353}, !- Space Name
  Outdoors,                               !- Outside Boundary Condition
  ,                                       !- Outside Boundary Condition Object
  SunExposed,                             !- Sun Exposure
  WindExposed,                            !- Wind Exposure
  ,                                       !- View Factor to Ground
  ,                                       !- Number of Vertices
  100, 0, 4,                              !- X,Y,Z Vertex 1 {m}
  100, 0, 0,                              !- X,Y,Z Vertex 2 {m}
  100, 50, 0,                             !- X,Y,Z Vertex 3 {m}
  100, 50, 4;                             !- X,Y,Z Vertex 4 {m}

OS:Surface,
  {5c5b957d-1630-40e7-9534-de2300387622}, !- Handle
  Surface 17,                             !- Name
  Wall,                                   !- Surface Type
  ,                                       !- Construction Name
  {7096b767-d8be-42c4-a0a4-df2753e8d353}, !- Space Name
  Outdoors,                               !- Outside Boundary Condition
  ,                                       !- Outside Boundary Condition Object
  SunExposed,                             !- Sun Exposure
  WindExposed,                            !- Wind Exposure
  ,                                       !- View Factor to Ground
  ,                                       !- Number of Vertices
  0, 0, 4,                                !- X,Y,Z Vertex 1 {m}
  0, 0, 0,                                !- X,Y,Z Vertex 2 {m}
  100, 0, 0,                              !- X,Y,Z Vertex 3 {m}
  100, 0, 4;                              !- X,Y,Z Vertex 4 {m}

OS:Surface,
  {2194eac4-455e-4a8c-90f1-346bd546e5e1}, !- Handle
  Surface 18,                             !- Name
  RoofCeiling,                            !- Surface Type
  ,                                       !- Construction Name
  {7096b767-d8be-42c4-a0a4-df2753e8d353}, !- Space Name
  Outdoors,                               !- Outside Boundary Condition
  ,                                       !- Outside Boundary Condition Object
  SunExposed,                             !- Sun Exposure
  WindExposed,                            !- Wind Exposure
  ,                                       !- View Factor to Ground
  ,                                       !- Number of Vertices
  100, 0, 4,                              !- X,Y,Z Vertex 1 {m}
  100, 50, 4,                             !- X,Y,Z Vertex 2 {m}
  0, 50, 4,                               !- X,Y,Z Vertex 3 {m}
  0, 0, 4;                                !- X,Y,Z Vertex 4 {m}

OS:ThermalZone,
  {cf78eb5b-5992-4f90-9ea0-1c4eefbbd65f}, !- Handle
  Story 1 Core Thermal Zone,              !- Name
  ,                                       !- Multiplier
  ,                                       !- Ceiling Height {m}
  ,                                       !- Volume {m3}
  ,                                       !- Floor Area {m2}
  ,                                       !- Zone Inside Convection Algorithm
  ,                                       !- Zone Outside Convection Algorithm
  ,                                       !- Zone Conditioning Equipment List Name
  {b8697fca-1cd4-4e1b-8503-1009ea310f32}, !- Zone Air Inlet Port List
  {017ef2f3-5dc7-412e-8b70-0040caeb061a}, !- Zone Air Exhaust Port List
  {4eaf4cc0-5d04-452a-9037-84dbcbeb5b1b}, !- Zone Air Node Name
  {a5dfb350-c76e-405f-9f0f-466c1c32bb0a}, !- Zone Return Air Port List
  ,                                       !- Primary Daylighting Control Name
  ,                                       !- Fraction of Zone Controlled by Primary Daylighting Control
  ,                                       !- Secondary Daylighting Control Name
  ,                                       !- Fraction of Zone Controlled by Secondary Daylighting Control
  ,                                       !- Illuminance Map Name
  ,                                       !- Group Rendering Name
  {db482310-bf3b-4f4e-95f2-0f522081a84d}, !- Thermostat Name
  Yes;                                    !- Use Ideal Air Loads

OS:Node,
  {8ca4f657-6b20-4a66-8606-3f9001189899}, !- Handle
  Node 1,                                 !- Name
  {4eaf4cc0-5d04-452a-9037-84dbcbeb5b1b}, !- Inlet Port
  ;                                       !- Outlet Port

OS:Connection,
  {4eaf4cc0-5d04-452a-9037-84dbcbeb5b1b}, !- Handle
  {e7e83181-29ef-427e-8e4f-dad997ef65a0}, !- Name
  {cf78eb5b-5992-4f90-9ea0-1c4eefbbd65f}, !- Source Object
  11,                                     !- Outlet Port
  {8ca4f657-6b20-4a66-8606-3f9001189899}, !- Target Object
  2;                                      !- Inlet Port

OS:PortList,
  {b8697fca-1cd4-4e1b-8503-1009ea310f32}, !- Handle
  {4722fddb-24e1-4e02-89c4-7cc68a4fbd41}, !- Name
  {cf78eb5b-5992-4f90-9ea0-1c4eefbbd65f}; !- HVAC Component

OS:PortList,
  {017ef2f3-5dc7-412e-8b70-0040caeb061a}, !- Handle
  {006a82c2-ac5d-4880-afc5-1a8db43998c9}, !- Name
  {cf78eb5b-5992-4f90-9ea0-1c4eefbbd65f}; !- HVAC Component

OS:PortList,
  {a5dfb350-c76e-405f-9f0f-466c1c32bb0a}, !- Handle
  {0a3432af-d302-47e7-baf1-1909ff489dc7}, !- Name
  {cf78eb5b-5992-4f90-9ea0-1c4eefbbd65f}; !- HVAC Component

OS:Sizing:Zone,
  {e6f679d5-8a06-47c1-a76e-5e8943e3ba65}, !- Handle
  {cf78eb5b-5992-4f90-9ea0-1c4eefbbd65f}, !- Zone or ZoneList Name
  SupplyAirTemperature,                   !- Zone Cooling Design Supply Air Temperature Input Method
  14,                                     !- Zone Cooling Design Supply Air Temperature {C}
  11.11,                                  !- Zone Cooling Design Supply Air Temperature Difference {deltaC}
  SupplyAirTemperature,                   !- Zone Heating Design Supply Air Temperature Input Method
  40,                                     !- Zone Heating Design Supply Air Temperature {C}
  11.11,                                  !- Zone Heating Design Supply Air Temperature Difference {deltaC}
  0.0085,                                 !- Zone Cooling Design Supply Air Humidity Ratio {kg-H2O/kg-air}
  0.008,                                  !- Zone Heating Design Supply Air Humidity Ratio {kg-H2O/kg-air}
  ,                                       !- Zone Heating Sizing Factor
  ,                                       !- Zone Cooling Sizing Factor
  DesignDay,                              !- Cooling Design Air Flow Method
  ,                                       !- Cooling Design Air Flow Rate {m3/s}
  ,                                       !- Cooling Minimum Air Flow per Zone Floor Area {m3/s-m2}
  ,                                       !- Cooling Minimum Air Flow {m3/s}
  ,                                       !- Cooling Minimum Air Flow Fraction
  DesignDay,                              !- Heating Design Air Flow Method
  ,                                       !- Heating Design Air Flow Rate {m3/s}
  ,                                       !- Heating Maximum Air Flow per Zone Floor Area {m3/s-m2}
  ,                                       !- Heating Maximum Air Flow {m3/s}
  ,                                       !- Heating Maximum Air Flow Fraction
  No,                                     !- Account for Dedicated Outdoor Air System
  NeutralSupplyAir,                       !- Dedicated Outdoor Air System Control Strategy
  autosize,                               !- Dedicated Outdoor Air Low Setpoint Temperature for Design {C}
  autosize;                               !- Dedicated Outdoor Air High Setpoint Temperature for Design {C}

OS:ZoneHVAC:EquipmentList,
  {893294c6-d44b-4259-b9f9-c6c43e25a80f}, !- Handle
  Zone HVAC Equipment List 1,             !- Name
  {cf78eb5b-5992-4f90-9ea0-1c4eefbbd65f}; !- Thermal Zone

OS:ThermalZone,
  {07247c03-fa43-491a-886f-09b2e0e1e346}, !- Handle
  Story 2 Core Thermal Zone,              !- Name
  ,                                       !- Multiplier
  ,                                       !- Ceiling Height {m}
  ,                                       !- Volume {m3}
  ,                                       !- Floor Area {m2}
  ,                                       !- Zone Inside Convection Algorithm
  ,                                       !- Zone Outside Convection Algorithm
  ,                                       !- Zone Conditioning Equipment List Name
  {e9bd2808-9bcc-41d1-a2f5-85f09162860f}, !- Zone Air Inlet Port List
  {23aed02c-0003-49b9-b605-6a40686ecf20}, !- Zone Air Exhaust Port List
  {a27bb4d2-4266-4c5d-a4f9-ee2f306d97c0}, !- Zone Air Node Name
  {fca819e6-1772-4e55-b832-05ba653ecd1e}, !- Zone Return Air Port List
  ,                                       !- Primary Daylighting Control Name
  ,                                       !- Fraction of Zone Controlled by Primary Daylighting Control
  ,                                       !- Secondary Daylighting Control Name
  ,                                       !- Fraction of Zone Controlled by Secondary Daylighting Control
  ,                                       !- Illuminance Map Name
  ,                                       !- Group Rendering Name
  {2ca7f02f-27d2-4eab-b08c-f4ed1e78198f}, !- Thermostat Name
  Yes;                                    !- Use Ideal Air Loads

OS:Node,
  {9ff88ca6-b35d-4a82-a5bd-ce238be54ce2}, !- Handle
  Node 2,                                 !- Name
  {a27bb4d2-4266-4c5d-a4f9-ee2f306d97c0}, !- Inlet Port
  ;                                       !- Outlet Port

OS:Connection,
  {a27bb4d2-4266-4c5d-a4f9-ee2f306d97c0}, !- Handle
  {7a8799a7-7ec9-4888-9a6e-ff5bf7bb6b33}, !- Name
  {07247c03-fa43-491a-886f-09b2e0e1e346}, !- Source Object
  11,                                     !- Outlet Port
  {9ff88ca6-b35d-4a82-a5bd-ce238be54ce2}, !- Target Object
  2;                                      !- Inlet Port

OS:PortList,
  {e9bd2808-9bcc-41d1-a2f5-85f09162860f}, !- Handle
  {5e748770-e892-4f6c-9193-94894ab7148e}, !- Name
  {07247c03-fa43-491a-886f-09b2e0e1e346}; !- HVAC Component

OS:PortList,
  {23aed02c-0003-49b9-b605-6a40686ecf20}, !- Handle
  {ff7a747d-59f0-47c1-8012-3f712b740dd9}, !- Name
  {07247c03-fa43-491a-886f-09b2e0e1e346}; !- HVAC Component

OS:PortList,
  {fca819e6-1772-4e55-b832-05ba653ecd1e}, !- Handle
  {f2dc968f-1da8-449b-924b-a1b10249ca1a}, !- Name
  {07247c03-fa43-491a-886f-09b2e0e1e346}; !- HVAC Component

OS:Sizing:Zone,
  {8f9fd6e1-fb2f-46e0-a3ae-e8058663148c}, !- Handle
  {07247c03-fa43-491a-886f-09b2e0e1e346}, !- Zone or ZoneList Name
  SupplyAirTemperature,                   !- Zone Cooling Design Supply Air Temperature Input Method
  14,                                     !- Zone Cooling Design Supply Air Temperature {C}
  11.11,                                  !- Zone Cooling Design Supply Air Temperature Difference {deltaC}
  SupplyAirTemperature,                   !- Zone Heating Design Supply Air Temperature Input Method
  40,                                     !- Zone Heating Design Supply Air Temperature {C}
  11.11,                                  !- Zone Heating Design Supply Air Temperature Difference {deltaC}
  0.0085,                                 !- Zone Cooling Design Supply Air Humidity Ratio {kg-H2O/kg-air}
  0.008,                                  !- Zone Heating Design Supply Air Humidity Ratio {kg-H2O/kg-air}
  ,                                       !- Zone Heating Sizing Factor
  ,                                       !- Zone Cooling Sizing Factor
  DesignDay,                              !- Cooling Design Air Flow Method
  ,                                       !- Cooling Design Air Flow Rate {m3/s}
  ,                                       !- Cooling Minimum Air Flow per Zone Floor Area {m3/s-m2}
  ,                                       !- Cooling Minimum Air Flow {m3/s}
  ,                                       !- Cooling Minimum Air Flow Fraction