
OS:Version,
  {b5a1413b-e719-4e30-8fb0-105ff860bb3c}, !- Handle
  2.9.1;                                  !- Version Identifier

OS:BuildingStory,
  {ab9e2373-bd44-4623-8d61-5f05033f915a}, !- Handle
  Story 1,                                !- Name
  0,                                      !- Nominal Z Coordinate {m}
  4,                                      !- Nominal Floor to Floor Height {m}
  ,                                       !- Default Construction Set Name
  ,                                       !- Default Schedule Set Name
  ;                                       !- Group Rendering Name

OS:Space,
  {b79ef2b9-3185-431b-b400-164c05cf91ae}, !- Handle
  Story 1 Core Space,                     !- Name
  ,                                       !- Space Type Name
  ,                                       !- Default Construction Set Name
  ,                                       !- Default Schedule Set Name
  -0,                                     !- Direction of Relative North {deg}
  0,                                      !- X Origin {m}
  0,                                      !- Y Origin {m}
  0,                                      !- Z Origin {m}
  {ab9e2373-bd44-4623-8d61-5f05033f915a}, !- Building Story Name
  {bb6fdd02-0106-4b32-96d1-ba18cff47d21}; !- Thermal Zone Name

OS:Surface,
  {8499a403-e3fb-4dfa-b16a-7178e6206b91}, !- Handle
  Surface 1,                              !- Name
  Floor,                                  !- Surface Type
  ,                                       !- Construction Name
  {b79ef2b9-3185-431b-b400-164c05cf91ae}, !- Space Name
  Ground,                                 !- Outside Boundary Condition
  ,                                       !- Outside Boundary Condition Object
  NoSun,                                  !- Sun Exposure
  NoWind,                                 !- Wind Exposure
  ,                                       !- View Factor to Ground
  ,                                       !- Number of Vertices
  0, 0, 0,                                !- X,Y,Z Vertex 1 {m}
  0, 50, 0,                               !- X,Y,Z Vertex 2 {m}
  100, 50, 0,                             !- X,Y,Z Vertex 3 {m}
  100, 0, 0;                              !- X,Y,Z Vertex 4 {m}

OS:Surface,
  {a88c5590-bc27-482d-9fb7-766526259c30}, !- Handle
  Surface 2,                              !- Name
  Wall,                                   !- Surface Type
  ,                                       !- Construction Name
  {b79ef2b9-3185-431b-b400-164c05cf91ae}, !- Space Name
  Outdoors,                               !- Outside Boundary Condition
  ,                                       !- Outside Boundary Condition Object
  SunExposed,                             !- Sun Exposure
  WindExposed,                            !- Wind Exposure
  ,                                       !- View Factor to Ground
  ,                                       !- Number of Vertices
  0, 50, 4,                               !- X,Y,Z Vertex 1 {m}
  0, 50, 0,                               !- X,Y,Z Vertex 2 {m}
  0, 0, 0,                                !- X,Y,Z Vertex 3 {m}
  0, 0, 4;                                !- X,Y,Z Vertex 4 {m}

OS:Surface,
  {11c3532e-99ee-439a-9aa1-8e0cbfd10a3f}, !- Handle
  Surface 3,                              !- Name
  Wall,                                   !- Surface Type
  ,                                       !- Construction Name
  {b79ef2b9-3185-431b-b400-164c05cf91ae}, !- Space Name
  Outdoors,                               !- Outside Boundary Condition
  ,                                       !- Outside Boundary Condition Object
  SunExposed,                             !- Sun Exposure
  WindExposed,                            !- Wind Exposure
  ,                                       !- View Factor to Ground
  ,                                       !- Number of Vertices
  100, 50, 4,                             !- X,Y,Z Vertex 1 {m}
  100, 50, 0,                             !- X,Y,Z Vertex 2 {m}
  0, 50, 0,                               !- X,Y,Z Vertex 3 {m}
  0, 50, 4;                               !- X,Y,Z Vertex 4 {m}

OS:Surface,
  {3c1b0f9a-73bf-429c-be7f-0c85421be812}, !- Handle
  Surface 4,                              !- Name
  Wall,                                   !- Surface Type
  ,                                       !- Construction Name
  {b79ef2b9-3185-431b-b400-164c05cf91ae}, !- Space Name
  Outdoors,                               !- Outside Boundary Condition
  ,                                       !- Outside Boundary Condition Object
  SunExposed,                             !- Sun Exposure
  WindExposed,                            !- Wind Exposure
  ,                                       !- View Factor to Ground
  ,                                       !- Number of Vertices
  100, 0, 4,                              !- X,Y,Z Vertex 1 {m}
  100, 0, 0,                              !- X,Y,Z Vertex 2 {m}
  100, 50, 0,                             !- X,Y,Z Vertex 3 {m}
  100, 50, 4;                             !- X,Y,Z Vertex 4 {m}

OS:Surface,
  {0528dcc8-4856-45b9-8a21-295eb328ae7b}, !- Handle
  Surface 5,                              !- Name
  Wall,                                   !- Surface Type
  ,                                       !- Construction Name
  {b79ef2b9-3185-431b-b400-164c05cf91ae}, !- Space Name
  Outdoors,                               !- Outside Boundary Condition
  ,                                       !- Outside Boundary Condition Object
  SunExposed,                             !- Sun Exposure
  WindExposed,                            !- Wind Exposure
  ,                                       !- View Factor to Ground
  ,                                       !- Number of Vertices
  0, 0, 4,                                !- X,Y,Z Vertex 1 {m}
  0, 0, 0,                                !- X,Y,Z Vertex 2 {m}
  100, 0, 0,                              !- X,Y,Z Vertex 3 {m}
  100, 0, 4;                              !- X,Y,Z Vertex 4 {m}

OS:Surface,
  {69b6ad51-35e4-42d1-ad1d-615a6b1a779a}, !- Handle
  Surface 6,                              !- Name
  RoofCeiling,                            !- Surface Type
  ,                                       !- Construction Name
  {b79ef2b9-3185-431b-b400-164c05cf91ae}, !- Space Name
  Outdoors,                               !- Outside Boundary Condition
  ,                                       !- Outside Boundary Condition Object
  SunExposed,                             !- Sun Exposure
  WindExposed,                            !- Wind Exposure
  ,                                       !- View Factor to Ground
  ,                                       !- Number of Vertices
  100, 0, 4,                              !- X,Y,Z Vertex 1 {m}
  100, 50, 4,                             !- X,Y,Z Vertex 2 {m}
  0, 50, 4,                               !- X,Y,Z Vertex 3 {m}
  0, 0, 4;                                !- X,Y,Z Vertex 4 {m}

OS:ThermalZone,
  {bb6fdd02-0106-4b32-96d1-ba18cff47d21}, !- Handle
  Story 1 Core Thermal Zone,              !- Name
  ,                                       !- Multiplier
  ,                                       !- Ceiling Height {m}
  ,                                       !- Volume {m3}
  ,                                       !- Floor Area {m2}
  ,                                       !- Zone Inside Convection Algorithm
  ,                                       !- Zone Outside Convection Algorithm
  ,                                       !- Zone Conditioning Equipment List Name
  {d1d72294-9c24-4098-a340-b5c2f5c8548f}, !- Zone Air Inlet Port List
  {f4e0aa2a-890f-499a-aeaa-b976d27ce00f}, !- Zone Air Exhaust Port List
  {b758752d-f121-451f-8e6b-323425c20c45}, !- Zone Air Node Name
  {c4efa705-364b-490c-ab83-1f17609d44cb}, !- Zone Return Air Port List
  ,                                       !- Primary Daylighting Control Name
  ,                                       !- Fraction of Zone Controlled by Primary Daylighting Control
  ,                                       !- Secondary Daylighting Control Name
  ,                                       !- Fraction of Zone Controlled by Secondary Daylighting Control
  ,                                       !- Illuminance Map Name
  ,                                       !- Group Rendering Name
  {fa631f52-6783-42df-9b3a-448293f57fa8}, !- Thermostat Name
  Yes;                                    !- Use Ideal Air Loads

OS:Node,
  {c7066348-092e-41aa-90b8-f5856e85ed87}, !- Handle
  Node 1,                                 !- Name
  {b758752d-f121-451f-8e6b-323425c20c45}, !- Inlet Port
  ;                                       !- Outlet Port

OS:Connection,
  {b758752d-f121-451f-8e6b-323425c20c45}, !- Handle
  {5288b641-c8e5-4ede-9f20-dea419ef3b34}, !- Name
  {bb6fdd02-0106-4b32-96d1-ba18cff47d21}, !- Source Object
  11,                                     !- Outlet Port
  {c7066348-092e-41aa-90b8-f5856e85ed87}, !- Target Object
  2;                                      !- Inlet Port

OS:PortList,
  {d1d72294-9c24-4098-a340-b5c2f5c8548f}, !- Handle
  {2190fd56-5c5b-49b7-b32b-9db58fa4c5c2}, !- Name
  {bb6fdd02-0106-4b32-96d1-ba18cff47d21}; !- HVAC Component

OS:PortList,
  {f4e0aa2a-890f-499a-aeaa-b976d27ce00f}, !- Handle
  {7037e51d-448e-4d05-b214-366df278bc1f}, !- Name
  {bb6fdd02-0106-4b32-96d1-ba18cff47d21}; !- HVAC Component

OS:PortList,
  {c4efa705-364b-490c-ab83-1f17609d44cb}, !- Handle
  {1e84033f-414a-4287-832a-bc951db79765}, !- Name
  {bb6fdd02-0106-4b32-96d1-ba18cff47d21}; !- HVAC Component

OS:Sizing:Zone,
  {909b7aa7-f738-4ef8-b814-85b8b24fa78e}, !- Handle
  {bb6fdd02-0106-4b32-96d1-ba18cff47d21}, !- Zone or ZoneList Name
  SupplyAirTemperature,                   !- Zone Cooling Design Supply Air Temperature Input Method
  14,                                     !- Zone Cooling Design Supply Air Temperature {C}
  11.11,                                  !- Zone Cooling Design Supply Air Temperature Difference {deltaC}
  SupplyAirTemperature,                   !- Zone Heating Design Supply Air Temperature Input Method
  40,                                     !- Zone Heating Design Supply Air Temperature {C}
  11.11,                                  !- Zone Heating Design Supply Air Temperature Difference {deltaC}
  0.0085,                                 !- Zone Cooling Design Supply Air Humidity Ratio {kg-H2O/kg-air}
  0.008,                                  !- Zone Heating Design Supply Air Humidity Ratio {kg-H2O/kg-air}
  ,                                       !- Zone Heating Sizing Factor
  ,                                       !- Zone Cooling Sizing Factor
  DesignDay,                              !- Cooling Design Air Flow Method
  ,                                       !- Cooling Design Air Flow Rate {m3/s}
  ,                                       !- Cooling Minimum Air Flow per Zone Floor Area {m3/s-m2}
  ,                                       !- Cooling Minimum Air Flow {m3/s}
  ,                                       !- Cooling Minimum Air Flow Fraction
  DesignDay,                              !- Heating Design Air Flow Method
  ,                                       !- Heating Design Air Flow Rate {m3/s}
  ,                                       !- Heating Maximum Air Flow per Zone Floor Area {m3/s-m2}
  ,                                       !- Heating Maximum Air Flow {m3/s}
  ,                                       !- Heating Maximum Air Flow Fraction
  ,                                       !- Design Zone Air Distribution Effectiveness in Cooling Mode
  ,                                       !- Design Zone Air Distribution Effectiveness in Heating Mode
  No,                                     !- Account for Dedicated Outdoor Air System
  NeutralSupplyAir,                       !- Dedicated Outdoor Air System Control Strategy
  autosize,                               !- Dedicated Outdoor Air Low Setpoint Temperature for Design {C}
  autosize;                               !- Dedicated Outdoor Air High Setpoint Temperature for Design {C}

OS:ZoneHVAC:EquipmentList,
  {f58bff9b-28b1-45b4-9808-a7533680514f}, !- Handle
  Zone HVAC Equipment List 1,             !- Name
  {bb6fdd02-0106-4b32-96d1-ba18cff47d21}; !- Thermal Zone

OS:SubSurface,
  {3a1a6fbc-1468-4bd3-b697-726b770da385}, !- Handle
  Sub Surface 1,                          !- Name
  FixedWindow,                            !- Sub Surface Type
  ,                                       !- Construction Name
  {a88c5590-bc27-482d-9fb7-766526259c30}, !- Surface Name
  ,                                       !- Outside Boundary Condition Object
  ,                                       !- View Factor to Ground
  ,                                       !- Shading Control Name
  ,                                       !- Frame and Divider Name
  ,                                       !- Multiplier
  ,                                       !- Number of Vertices
  0, 49.9746, 2.60162725328934,           !- X,Y,Z Vertex 1 {m}
  0, 49.9746, 1,                          !- X,Y,Z Vertex 2 {m}
  0, 0.0254000000000048, 1,               !- X,Y,Z Vertex 3 {m}
  0, 0.0254000000000048, 2.60162725328934; !- X,Y,Z Vertex 4 {m}

OS:SubSurface,
  {6129cad7-37a7-479b-89f6-2369fdf19f6e}, !- Handle
  Sub Surface 2,                          !- Name
  FixedWindow,                            !- Sub Surface Type
  ,                                       !- Construction Name
  {11c3532e-99ee-439a-9aa1-8e0cbfd10a3f}, !- Surface Name
  ,                                       !- Outside Boundary Condition Object
  ,                                       !- View Factor to Ground
  ,                                       !- Shading Control Name
  ,                                       !- Frame and Divider Name
  ,                                       !- Multiplier
  ,                                       !- Number of Vertices
  99.9746, 50, 2.60081321311226,          !- X,Y,Z Vertex 1 {m}
  99.9746, 50, 1,                         !- X,Y,Z Vertex 2 {m}
  0.0253999999999905, 50, 1,              !- X,Y,Z Vertex 3 {m}
  0.0253999999999905, 50, 2.60081321311226; !- X,Y,Z Vertex 4 {m}

OS:SubSurface,
  {a99eec86-ac33-44d6-abe1-ff64daefe958}, !- Handle
  Sub Surface 3,                          !- Name
  FixedWindow,                            !- Sub Surface Type
  ,                                       !- Construction Name
  {3c1b0f9a-73bf-429c-be7f-0c85421be812}, !- Surface Name
  ,                                       !- Outside Boundary Condition Object
  ,                                       !- View Factor to Ground
  ,                                       !- Shading Control Name
  ,                                       !- Frame and Divider Name
  ,                                       !- Multiplier
  ,                                       !- Number of Vertices
  100, 0.0254, 2.60162725328934,          !- X,Y,Z Vertex 1 {m}
  100, 0.0254, 1,                         !- X,Y,Z Vertex 2 {m}
  100, 49.9746, 1,                        !- X,Y,Z Vertex 3 {m}
  100, 49.9746, 2.60162725328934;         !- X,Y,Z Vertex 4 {m}

OS:SubSurface,
  {32e2ba3b-39aa-49cd-b563-b73bb18952e5}, !- Handle
  Sub Surface 4,                          !- Name
  FixedWindow,                            !- Sub Surface Type
  ,                                       !- Construction Name
  {0528dcc8-4856-45b9-8a21-295eb328ae7b}, !- Surface Name
  ,                                       !- Outside Boundary Condition Object
  ,                                       !- View Factor to Ground
  ,                                       !- Shading Control Name
  ,                                       !- Frame and Divider Name
  ,                                       !- Multiplier
  ,                                       !- Number of Vertices
  0.0254, 0, 2.60081321311226,            !- X,Y,Z Vertex 1 {m}
  0.0254, 0, 1,                           !- X,Y,Z Vertex 2 {m}
  99.9746, 0, 1,                          !- X,Y,Z Vertex 3 {m}
  99.9746, 0, 2.60081321311226;           !- X,Y,Z Vertex 4 {m}

OS:Schedule:Ruleset,
  {673a08cf-b443-4590-ad83-e58b016b2c5b}, !- Handle
  Cooling Sch,                            !- Name
  {c81e0169-603b-4e95-b2e5-b4f0c995ecaf}, !- Schedule Type Limits Name
  {9cdbb830-94da-4cc8-90ff-5540c373ca6f}; !- Default Day Schedule Name

OS:Schedule:Day,
  {9cdbb830-94da-4cc8-90ff-5540c373ca6f}, !- Handle
  Cooling Sch Default,                    !- Name
  {c81e0169-603b-4e95-b2e5-b4f0c995ecaf}, !- Schedule Type Limits Name
  ,                                       !- Interpolate to Timestep
  24,                                     !- Hour 1
  0,                                      !- Minute 1
  28;                                     !- Value Until Time 1

OS:Schedule:Ruleset,
  {4c1c9d03-06e4-4871-a4e9-dde25d1d1f32}, !- Handle
  Heating Sch,                            !- Name
  {c81e0169-603b-4e95-b2e5-b4f0c995ecaf}, !- Schedule Type Limits Name
  {73286b06-8c5b-49c8-9b06-204dfe04753b}; !- Default Day Schedule Name

OS:Schedule:Day,
  {73286b06-8c5b-49c8-9b06-204dfe04753b}, !- Handle
  Heating Sch Default,                    !- Name
  {c81e0169-603b-4e95-b2e5-b4f0c995ecaf}, !- Schedule Type Limits Name
  ,                                       !- Interpolate to Timestep
  24,                                     !- Hour 1
  0,                                      !- Minute 1
  24;                                     !- Value Until Time 1

OS:ThermostatSetpoint:DualSetpoint,
  {fa631f52-6783-42df-9b3a-448293f57fa8}, !- Handle
  Thermostat Setpoint Dual Setpoint 1,    !- Name
  {4c1c9d03-06e4-4871-a4e9-dde25d1d1f32}, !- Heating Setpoint Temperature Schedule Name
  {673a08cf-b443-4590-ad83-e58b016b2c5b}; !- Cooling Setpoint Temperature Schedule Name

OS:ScheduleTypeLimits,
  {c81e0169-603b-4e95-b2e5-b4f0c995ecaf}, !- Handle
  Temperature,                            !- Name
  ,                                       !- Lower Limit Value
  ,                                       !- Upper Limit Value
  Continuous,                             !- Numeric Type
  Temperature;                            !- Unit Type

OS:DefaultConstructionSet,
  {c1eee19d-ad05-4854-9a2c-31febf1fbf29}, ! Handle
  ASHRAE_189.1-2009_ClimateZone 4-5 (mdoff)_ConstSet, ! Name
  {4645d5b0-a719-489a-a915-03542672352e}, ! Default Exterior Surface Constructions Name
  {664b7c30-6051-4d7f-8c91-6ec57d2321d4}, ! Default Interior Surface Constructions Name
  {e7ba3ed5-bece-4a78-a715-7ac00e44ff43}, ! Default Ground Contact Surface Constructions Name
  {fb90b9ca-a9c5-47e9-bd5e-1dfabe0ca20c}, ! Default Exterior SubSurface Constructions Name
  {d9874f2b-101e-452f-b2dc-e32233bde418}, ! Default Interior SubSurface Constructions Name
  {3b39dfb3-55ae-4d47-bb44-0ba43944b4eb}, ! Interior Partition Construction Name
  ,                                       ! Space Shading Construction Name
  ,                                       ! Building Shading Construction Name
  ,                                       ! Site Shading Construction Name
  ;                                       !- Adiabatic Surface Construction Name

OS:DefaultSurfaceConstructions,
  {4645d5b0-a719-489a-a915-03542672352e}, ! Handle
  ASHRAE_189.1-2009_ClimateZone 4-5 (mdoff)_Exterior_DefSurfCons, ! Name
  {f71218e5-7aa9-47e7-921b-cae768c11c33}, ! Floor Construction Name
  {c2c5b84f-663a-4175-9ad5-b17f3de275ee}, ! Wall Construction Name
  {c1678ebc-bcba-40a5-9b8e-925931882ccd}; ! Roof Ceiling Construction Name

OS:DefaultSurfaceConstructions,
  {664b7c30-6051-4d7f-8c91-6ec57d2321d4}, ! Handle
  000_Interior_DefSurfCons,               ! Name
  {100d4036-75dc-4593-bd7f-6a794389c80c}, ! Floor Construction Name
  {84b753da-a6e4-4c0b-9648-b7ac5ec31382}, ! Wall Construction Name
  {27a5f5fb-0e4c-43b2-a285-150c8866ed1a}; ! Roof Ceiling Construction Name

OS:DefaultSurfaceConstructions,
  {e7ba3ed5-bece-4a78-a715-7ac00e44ff43}, ! Handle
  000_Ground_DefSurfCons,                 ! Name
  {f71218e5-7aa9-47e7-921b-cae768c11c33}, ! Floor Construction Name
  {f71218e5-7aa9-47e7-921b-cae768c11c33}, ! Wall Construction Name
  {f71218e5-7aa9-47e7-921b-cae768c11c33}; ! Roof Ceiling Construction Name

OS:DefaultSubSurfaceConstructions,
  {fb90b9ca-a9c5-47e9-bd5e-1dfabe0ca20c}, ! Handle
  ASHRAE_189.1-2009_ClimateZone 4-5 (mdoff)_Exterior_DefSubCons, ! Name
  {a03d4792-a6fb-4008-af49-8ea44e84fa5e}, ! Fixed Window Construction Name
  {a03d4792-a6fb-4008-af49-8ea44e84fa5e}, ! Operable Window Construction Name
  {9efde2ec-1643-4af3-937d-9be9b9673666}, ! Door Construction Name
  {f7729089-dacf-4701-8ef5-132336520353}, ! Glass Door Construction Name
  ,                                       ! Overhead Door Construction Name
  {f7729089-dacf-4701-8ef5-132336520353}, ! Skylight Construction Name
  {55142c56-0cd7-4b83-87aa-2803a0008799}, ! Tubular Daylight Dome Construction Name
  {55142c56-0cd7-4b83-87aa-2803a0008799}; ! Tubular Daylight Diffuser Construction Name

OS:DefaultSubSurfaceConstructions,
  {d9874f2b-101e-452f-b2dc-e32233bde418}, ! Handle
  000_Interior_DefSubCons,                ! Name
  {55142c56-0cd7-4b83-87aa-2803a0008799}, ! Fixed Window Construction Name
  {55142c56-0cd7-4b83-87aa-2803a0008799}, ! Operable Window Construction Name
  {be307c4a-40eb-4725-b5c5-40c6343aaa1f}, ! Door Construction Name
  {f7729089-dacf-4701-8ef5-132336520353}, ! Glass Door Construction Name
  ,                                       ! Overhead Door Construction Name
  {f7729089-dacf-4701-8ef5-132336520353}, ! Skylight Construction Name
  {55142c56-0cd7-4b83-87aa-2803a0008799}, ! Tubular Daylight Dome Construction Name
  {55142c56-0cd7-4b83-87aa-2803a0008799}; ! Tubular Daylight Diffuser Construction Name

OS:Construction,
  {3b39dfb3-55ae-4d47-bb44-0ba43944b4eb}, ! Handle
  000_Interior Partition,                 ! Name
  ,                                       ! Surface Rendering Name
  {6f517cc7-d2c7-4397-bd77-15fb6b1263be}; ! Layer 1

OS:Construction,
  {f71218e5-7aa9-47e7-921b-cae768c11c33}, ! Handle
  000_ExtSlabCarpet_4in_ClimateZone 1-8,  ! Name
  ,                                       ! Surface Rendering Name
  {c6edf29f-2435-4f0c-b749-054f890f5fa8}, ! Layer 1
  {0bb86b1a-2172-4f12-b99d-7f5bce4b5126}; ! Layer 2

OS:Construction,
  {c2c5b84f-663a-4175-9ad5-b17f3de275ee}, ! Handle
  ASHRAE_189.1-2009_ExtWall_SteelFrame_ClimateZone 4-8, ! Name
  ,                                       ! Surface Rendering Name
  {623108cf-a4b6-403c-92be-41a83e5c6373}, ! Layer 1
  {5f8ad778-7293-4dab-86ac-b6f069cef348}, ! Layer 2
  {2324b876-cae7-4769-82ee-5fb96a14fd60}; ! Layer 3

OS:Construction,
  {c1678ebc-bcba-40a5-9b8e-925931882ccd}, ! Handle
  ASHRAE_189.1-2009_ExtRoof_IEAD_ClimateZone 2-5, ! Name
  ,                                       ! Surface Rendering Name
  {2583fb3d-984e-467d-b8e8-148659de71c6}, ! Layer 1
  {4462e673-9502-41d7-a29d-aa38042ef3f4}, ! Layer 2
  {6e2485c9-8837-410f-a4e5-8ed23dc79c2f}; ! Layer 3

OS:Construction,
  {100d4036-75dc-4593-bd7f-6a794389c80c}, ! Handle
  000_Interior Floor,                     ! Name
  ,                                       ! Surface Rendering Name
  {55bbac9a-bd99-4ac4-8e28-3c40c10376c0}, ! Layer 1
  {674c5caa-d590-4daa-a62d-47b23400e0bb}, ! Layer 2
  {b7da2ecf-5513-44b1-ad2e-d22d7dfa26e6}; ! Layer 3

OS:Construction,
  {84b753da-a6e4-4c0b-9648-b7ac5ec31382}, ! Handle
  000_Interior Wall,                      ! Name
  ,                                       ! Surface Rendering Name
  {58ec7531-092d-4ef6-a29c-7481e3736ba7}, ! Layer 1
  {ebdb24cd-a858-4814-9a31-80066729f03e}, ! Layer 2
  {58ec7531-092d-4ef6-a29c-7481e3736ba7}; ! Layer 3

OS:Construction,
  {27a5f5fb-0e4c-43b2-a285-150c8866ed1a}, ! Handle
  000_Interior Ceiling,                   ! Name
  ,                                       ! Surface Rendering Name
  {b7da2ecf-5513-44b1-ad2e-d22d7dfa26e6}, ! Layer 1
  {674c5caa-d590-4daa-a62d-47b23400e0bb}, ! Layer 2
  {55bbac9a-bd99-4ac4-8e28-3c40c10376c0}; ! Layer 3

OS:Construction,
  {a03d4792-a6fb-4008-af49-8ea44e84fa5e}, ! Handle
  ASHRAE_189.1-2009_ExtWindow_ClimateZone 4-5, ! Name
  ,                                       ! Surface Rendering Name
  {e47009e9-15eb-4a1f-b55f-46fec2cf12ad}; ! Layer 1

OS:Construction,
  {9efde2ec-1643-4af3-937d-9be9b9673666}, ! Handle
  000_Exterior Door,                      ! Name
  ,                                       ! Surface Rendering Name
  {7d684288-5f88-49ac-a6e2-ad8e05bfeb8e}, ! Layer 1
  {93a5cd8c-3e65-4b80-8868-0f3db41129fd}; ! Layer 2

OS:Construction,
  {f7729089-dacf-4701-8ef5-132336520353}, ! Handle
  000_Exterior Window,                    ! Name
  ,                                       ! Surface Rendering Name
  {441f95f5-8f9b-4ebe-907e-fd4ab10c12ce}, ! Layer 1
  {112ec1ce-2a3e-495c-97ad-26ee712c076e}, ! Layer 2
  {441f95f5-8f9b-4ebe-907e-fd4ab10c12ce}; ! Layer 3

OS:Construction,
  {55142c56-0cd7-4b83-87aa-2803a0008799}, ! Handle
  000_Interior Window,                    ! Name
  ,                                       ! Surface Rendering Name
  {441f95f5-8f9b-4ebe-907e-fd4ab10c12ce}; ! Layer 1

OS:Construction,
  {be307c4a-40eb-4725-b5c5-40c6343aaa1f}, ! Handle
  000_Interior Door,                      ! Name
  ,                                       ! Surface Rendering Name
  {6f517cc7-d2c7-4397-bd77-15fb6b1263be}; ! Layer 1

OS:Material,
  {6f517cc7-d2c7-4397-bd77-15fb6b1263be}, ! Handle
  000_G05 25mm wood,                      ! Name
  MediumSmooth,                           ! Roughness
  0.025399999999999999,                   ! Thickness
  0.14999999999999999,                    ! Conductivity
  608,                                    ! Density
  1630;                                   ! Specific Heat

OS:Material,
  {c6edf29f-2435-4f0c-b749-054f890f5fa8}, ! Handle
  MAT-CC05 4 HW CONCRETE,                 ! Name
  Rough,                                  ! Roughness
  0.1016,                                 ! Thickness
  1.3109999999999999,                     ! Conductivity
  2240,                                   ! Density
  836.79999999999995,                     ! Specific Heat
  0.90000000000000002,                    ! Thermal Absorptance
  0.69999999999999996,                    ! Solar Absorptance
  0.69999999999999996;                    ! Visible Absorptance

OS:Material:NoMass,
  {0bb86b1a-2172-4f12-b99d-7f5bce4b5126}, ! Handle
  CP02 CARPET PAD,                        ! Name
  VeryRough,                              ! Roughness
  0.2165,                                 ! Thermal Resistance
  0.90000000000000002,                    ! Thermal Absorptance
  0.69999999999999996,                    ! Solar Absorptance
  0.80000000000000004;                    ! Visible Absorptance

OS:Material:NoMass,
  {623108cf-a4b6-403c-92be-41a83e5c6373}, ! Handle
  MAT-SHEATH,                             ! Name
  Rough,                                  ! Roughness
  0.36259999999999998,                    ! Thermal Resistance
  0.90000000000000002,                    ! Thermal Absorptance
  0.69999999999999996,                    ! Solar Absorptance
  0.69999999999999996;                    ! Visible Absorptance

OS:Material,
  {5f8ad778-7293-4dab-86ac-b6f069cef348}, ! Handle
  Wall Insulation [39],                   ! Name
  MediumRough,                            ! Roughness
  0.11840000000000001,                    ! Thickness
  0.044999999999999998,                   ! Conductivity
  265,                                    ! Density
  836.79999999999995,                     ! Specific Heat
  0.90000000000000002,                    ! Thermal Absorptance
  0.69999999999999996,                    ! Solar Absorptance
  0.69999999999999996;                    ! Visible Absorptance

OS:Material,
  {2324b876-cae7-4769-82ee-5fb96a14fd60}, ! Handle
  1/2IN Gypsum,                           ! Name
  Smooth,                                 ! Roughness
  0.012699999999999999,                   ! Thickness
  0.16,                                   ! Conductivity
  784.89999999999998,                     ! Density
  830,                                    ! Specific Heat
  0.90000000000000002,                    ! Thermal Absorptance
  0.92000000000000004,                    ! Solar Absorptance
  0.92000000000000004;                    ! Visible Absorptance

OS:Material,
  {2583fb3d-984e-467d-b8e8-148659de71c6}, ! Handle
  Roof Membrane,                          ! Name
  VeryRough,                              ! Roughness
  0.0094999999999999998,                  ! Thickness
  0.16,                                   ! Conductivity
  1121.29,                                ! Density
  1460,                                   ! Specific Heat
  0.90000000000000002,                    ! Thermal Absorptance
  0.69999999999999996,                    ! Solar Absorptance
  0.69999999999999996;                    ! Visible Absorptance

OS:Material,
  {4462e673-9502-41d7-a29d-aa38042ef3f4}, ! Handle
  Roof Insulation [21],                   ! Name
  MediumRough,                            ! Roughness
  0.21049999999999999,                    ! Thickness
  0.049000000000000002,                   ! Conductivity
  265,                                    ! Density
  836.79999999999995,                     ! Specific Heat
  0.90000000000000002,                    ! Thermal Absorptance
  0.69999999999999996,                    ! Solar Absorptance
  0.69999999999999996;                    ! Visible Absorptance

OS:Material,
  {6e2485c9-8837-410f-a4e5-8ed23dc79c2f}, ! Handle
  Metal Decking,                          ! Name
  MediumSmooth,                           ! Roughness
  0.0015,                                 ! Thickness
  45.006,                                 ! Conductivity
  7680,                                   ! Density
  418.39999999999998,                     ! Specific Heat
  0.90000000000000002,                    ! Thermal Absorptance