
OS:Version,
  {51d4b1af-838f-45fb-b4ed-bb3b0078a1ab}, !- Handle
  2.0.5;                                  !- Version Identifier

OS:BuildingStory,
  {b2f9319b-5183-4a4f-8f55-ec28e63f4b38}, !- Handle
  Story 1,                                !- Name
  0,                                      !- Nominal Z Coordinate {m}
  4,                                      !- Nominal Floor to Floor Height {m}
  ,                                       !- Default Construction Set Name
  ,                                       !- Default Schedule Set Name
  ;                                       !- Group Rendering Name

OS:Space,
  {59970b24-a85e-46ba-b494-1a3d364e2359}, !- Handle
  Story 1 Core Space,                     !- Name
  ,                                       !- Space Type Name
  ,                                       !- Default Construction Set Name
  ,                                       !- Default Schedule Set Name
  -0,                                     !- Direction of Relative North {deg}
  0,                                      !- X Origin {m}
  0,                                      !- Y Origin {m}
  0,                                      !- Z Origin {m}
  {b2f9319b-5183-4a4f-8f55-ec28e63f4b38}, !- Building Story Name
  {46b54952-6512-469f-b8d8-73001b50f128}; !- Thermal Zone Name

OS:Surface,
  {e095c42d-6e9f-454c-8781-6a9b780d5156}, !- Handle
  Surface 1,                              !- Name
  Floor,                                  !- Surface Type
  ,                                       !- Construction Name
  {59970b24-a85e-46ba-b494-1a3d364e2359}, !- Space Name
  Ground,                                 !- Outside Boundary Condition
  ,                                       !- Outside Boundary Condition Object
  NoSun,                                  !- Sun Exposure
  NoWind,                                 !- Wind Exposure
  ,                                       !- View Factor to Ground
  ,                                       !- Number of Vertices
  0, 0, 0,                                !- X,Y,Z Vertex 1 {m}
  0, 50, 0,                               !- X,Y,Z Vertex 2 {m}
  100, 50, 0,                             !- X,Y,Z Vertex 3 {m}
  100, 0, 0;                              !- X,Y,Z Vertex 4 {m}

OS:Surface,
  {4318329a-8120-4b38-a93f-d2c5ce0b2328}, !- Handle
  Surface 2,                              !- Name
  Wall,                                   !- Surface Type
  ,                                       !- Construction Name
  {59970b24-a85e-46ba-b494-1a3d364e2359}, !- Space Name
  Outdoors,                               !- Outside Boundary Condition
  ,                                       !- Outside Boundary Condition Object
  SunExposed,                             !- Sun Exposure
  WindExposed,                            !- Wind Exposure
  ,                                       !- View Factor to Ground
  ,                                       !- Number of Vertices
  0, 50, 4,                               !- X,Y,Z Vertex 1 {m}
  0, 50, 0,                               !- X,Y,Z Vertex 2 {m}
  0, 0, 0,                                !- X,Y,Z Vertex 3 {m}
  0, 0, 4;                                !- X,Y,Z Vertex 4 {m}

OS:Surface,
  {99edcb6a-a4f8-4566-87eb-cbc6ddec51ef}, !- Handle
  Surface 3,                              !- Name
  Wall,                                   !- Surface Type
  ,                                       !- Construction Name
  {59970b24-a85e-46ba-b494-1a3d364e2359}, !- Space Name
  Outdoors,                               !- Outside Boundary Condition
  ,                                       !- Outside Boundary Condition Object
  SunExposed,                             !- Sun Exposure
  WindExposed,                            !- Wind Exposure
  ,                                       !- View Factor to Ground
  ,                                       !- Number of Vertices
  100, 50, 4,                             !- X,Y,Z Vertex 1 {m}
  100, 50, 0,                             !- X,Y,Z Vertex 2 {m}
  0, 50, 0,                               !- X,Y,Z Vertex 3 {m}
  0, 50, 4;                               !- X,Y,Z Vertex 4 {m}

OS:Surface,
  {cae0df59-a95c-471f-9e4e-4db7dd8c3e32}, !- Handle
  Surface 4,                              !- Name
  Wall,                                   !- Surface Type
  ,                                       !- Construction Name
  {59970b24-a85e-46ba-b494-1a3d364e2359}, !- Space Name
  Outdoors,                               !- Outside Boundary Condition
  ,                                       !- Outside Boundary Condition Object
  SunExposed,                             !- Sun Exposure
  WindExposed,                            !- Wind Exposure
  ,                                       !- View Factor to Ground
  ,                                       !- Number of Vertices
  100, 0, 4,                              !- X,Y,Z Vertex 1 {m}
  100, 0, 0,                              !- X,Y,Z Vertex 2 {m}
  100, 50, 0,                             !- X,Y,Z Vertex 3 {m}
  100, 50, 4;                             !- X,Y,Z Vertex 4 {m}

OS:Surface,
  {8678baeb-dd3c-4185-a0ce-6406ba7e43c7}, !- Handle
  Surface 5,                              !- Name
  Wall,                                   !- Surface Type
  ,                                       !- Construction Name
  {59970b24-a85e-46ba-b494-1a3d364e2359}, !- Space Name
  Outdoors,                               !- Outside Boundary Condition
  ,                                       !- Outside Boundary Condition Object
  SunExposed,                             !- Sun Exposure
  WindExposed,                            !- Wind Exposure
  ,                                       !- View Factor to Ground
  ,                                       !- Number of Vertices
  0, 0, 4,                                !- X,Y,Z Vertex 1 {m}
  0, 0, 0,                                !- X,Y,Z Vertex 2 {m}
  100, 0, 0,                              !- X,Y,Z Vertex 3 {m}
  100, 0, 4;                              !- X,Y,Z Vertex 4 {m}

OS:Surface,
  {aa556518-e862-4d9a-a424-e3eee0bdddb8}, !- Handle
  Surface 6,                              !- Name
  RoofCeiling,                            !- Surface Type
  ,                                       !- Construction Name
  {59970b24-a85e-46ba-b494-1a3d364e2359}, !- Space Name
  Outdoors,                               !- Outside Boundary Condition
  ,                                       !- Outside Boundary Condition Object
  SunExposed,                             !- Sun Exposure
  WindExposed,                            !- Wind Exposure
  ,                                       !- View Factor to Ground
  ,                                       !- Number of Vertices
  100, 0, 4,                              !- X,Y,Z Vertex 1 {m}
  100, 50, 4,                             !- X,Y,Z Vertex 2 {m}
  0, 50, 4,                               !- X,Y,Z Vertex 3 {m}
  0, 0, 4;                                !- X,Y,Z Vertex 4 {m}

OS:ThermalZone,
  {46b54952-6512-469f-b8d8-73001b50f128}, !- Handle
  Story 1 Core Thermal Zone,              !- Name
  ,                                       !- Multiplier
  ,                                       !- Ceiling Height {m}
  ,                                       !- Volume {m3}
  ,                                       !- Floor Area {m2}
  ,                                       !- Zone Inside Convection Algorithm
  ,                                       !- Zone Outside Convection Algorithm
  ,                                       !- Zone Conditioning Equipment List Name
  {542a89b3-a7c0-4aee-a5fe-ffa652aa9fa7}, !- Zone Air Inlet Port List
  {c8864828-dc21-46b3-809b-18ede1e6889e}, !- Zone Air Exhaust Port List
  {c21e5ef3-3b26-46d6-ad3e-4f73091ad8b2}, !- Zone Air Node Name
  ,                                       !- Zone Return Air Node Name
  ,                                       !- Primary Daylighting Control Name
  ,                                       !- Fraction of Zone Controlled by Primary Daylighting Control
  ,                                       !- Secondary Daylighting Control Name
  ,                                       !- Fraction of Zone Controlled by Secondary Daylighting Control
  ,                                       !- Illuminance Map Name
  ,                                       !- Group Rendering Name
  {98e97e74-9f63-4bff-8ef3-e2532d96c9ed}, !- Thermostat Name
  Yes;                                    !- Use Ideal Air Loads

OS:Node,
  {11a70a1b-d579-41c3-bcee-6d3bd4a6b19d}, !- Handle
  Node 1,                                 !- Name
  {c21e5ef3-3b26-46d6-ad3e-4f73091ad8b2}, !- Inlet Port
  ;                                       !- Outlet Port

OS:Connection,
  {c21e5ef3-3b26-46d6-ad3e-4f73091ad8b2}, !- Handle
  {63d5140b-72ea-40f5-9671-00ec3a4aee59}, !- Name
  {46b54952-6512-469f-b8d8-73001b50f128}, !- Source Object
  11,                                     !- Outlet Port
  {11a70a1b-d579-41c3-bcee-6d3bd4a6b19d}, !- Target Object
  2;                                      !- Inlet Port

OS:PortList,
  {542a89b3-a7c0-4aee-a5fe-ffa652aa9fa7}, !- Handle
  Port List 1,                            !- Name
  {46b54952-6512-469f-b8d8-73001b50f128}; !- HVAC Component

OS:PortList,
  {c8864828-dc21-46b3-809b-18ede1e6889e}, !- Handle
  Port List 2,                            !- Name
  {46b54952-6512-469f-b8d8-73001b50f128}; !- HVAC Component

OS:Sizing:Zone,
  {286f1f92-0b8c-4f22-9975-9fe77162ae4e}, !- Handle
  {46b54952-6512-469f-b8d8-73001b50f128}, !- Zone or ZoneList Name
  SupplyAirTemperature,                   !- Zone Cooling Design Supply Air Temperature Input Method
  14,                                     !- Zone Cooling Design Supply Air Temperature {C}
  11.11,                                  !- Zone Cooling Design Supply Air Temperature Difference {deltaC}
  SupplyAirTemperature,                   !- Zone Heating Design Supply Air Temperature Input Method
  40,                                     !- Zone Heating Design Supply Air Temperature {C}
  11.11,                                  !- Zone Heating Design Supply Air Temperature Difference {deltaC}
  0.0085,                                 !- Zone Cooling Design Supply Air Humidity Ratio {kg-H2O/kg-air}
  0.008,                                  !- Zone Heating Design Supply Air Humidity Ratio {kg-H2O/kg-air}
  ,                                       !- Zone Heating Sizing Factor
  ,                                       !- Zone Cooling Sizing Factor
  DesignDay,                              !- Cooling Design Air Flow Method
  ,                                       !- Cooling Design Air Flow Rate {m3/s}
  ,                                       !- Cooling Minimum Air Flow per Zone Floor Area {m3/s-m2}
  ,                                       !- Cooling Minimum Air Flow {m3/s}
  ,                                       !- Cooling Minimum Air Flow Fraction
  DesignDay,                              !- Heating Design Air Flow Method
  ,                                       !- Heating Design Air Flow Rate {m3/s}
  ,                                       !- Heating Maximum Air Flow per Zone Floor Area {m3/s-m2}
  ,                                       !- Heating Maximum Air Flow {m3/s}
  ,                                       !- Heating Maximum Air Flow Fraction
  ,                                       !- Design Zone Air Distribution Effectiveness in Cooling Mode
  ,                                       !- Design Zone Air Distribution Effectiveness in Heating Mode
  No,                                     !- Account for Dedicated Outdoor Air System
  NeutralSupplyAir,                       !- Dedicated Outdoor Air System Control Strategy
  autosize,                               !- Dedicated Outdoor Air Low Setpoint Temperature for Design {C}
  autosize;                               !- Dedicated Outdoor Air High Setpoint Temperature for Design {C}

OS:ZoneHVAC:EquipmentList,
  {3fc0385f-1129-4e4c-b2ff-5eb7276be379}, !- Handle
  Zone HVAC Equipment List 1,             !- Name
  {46b54952-6512-469f-b8d8-73001b50f128}; !- Thermal Zone

OS:SubSurface,
  {7aa78220-3db5-4566-bcf8-80cf96dc0210}, !- Handle
  Sub Surface 1,                          !- Name
  FixedWindow,                            !- Sub Surface Type
  ,                                       !- Construction Name
  {4318329a-8120-4b38-a93f-d2c5ce0b2328}, !- Surface Name
  ,                                       !- Outside Boundary Condition Object
  ,                                       !- View Factor to Ground
  ,                                       !- Shading Control Name
  ,                                       !- Frame and Divider Name
  ,                                       !- Multiplier
  ,                                       !- Number of Vertices
  0, 49.9746, 2.60162725328934,           !- X,Y,Z Vertex 1 {m}
  0, 49.9746, 1,                          !- X,Y,Z Vertex 2 {m}
  0, 0.0254000000000048, 1,               !- X,Y,Z Vertex 3 {m}
  0, 0.0254000000000048, 2.60162725328934; !- X,Y,Z Vertex 4 {m}

OS:SubSurface,
  {c5bd5f77-535e-49ed-bbc3-571bd8f0e718}, !- Handle
  Sub Surface 2,                          !- Name
  FixedWindow,                            !- Sub Surface Type
  ,                                       !- Construction Name
  {8678baeb-dd3c-4185-a0ce-6406ba7e43c7}, !- Surface Name
  ,                                       !- Outside Boundary Condition Object
  ,                                       !- View Factor to Ground
  ,                                       !- Shading Control Name
  ,                                       !- Frame and Divider Name
  ,                                       !- Multiplier
  ,                                       !- Number of Vertices
  0.0254, 0, 2.60081321311226,            !- X,Y,Z Vertex 1 {m}
  0.0254, 0, 1,                           !- X,Y,Z Vertex 2 {m}
  99.9746, 0, 1,                          !- X,Y,Z Vertex 3 {m}
  99.9746, 0, 2.60081321311226;           !- X,Y,Z Vertex 4 {m}

OS:SubSurface,
  {7966069d-2c0b-43fa-a15b-b60dcbc932e9}, !- Handle
  Sub Surface 3,                          !- Name
  FixedWindow,                            !- Sub Surface Type
  ,                                       !- Construction Name
  {99edcb6a-a4f8-4566-87eb-cbc6ddec51ef}, !- Surface Name
  ,                                       !- Outside Boundary Condition Object
  ,                                       !- View Factor to Ground
  ,                                       !- Shading Control Name
  ,                                       !- Frame and Divider Name
  ,                                       !- Multiplier
  ,                                       !- Number of Vertices
  99.9746, 50, 2.60081321311226,          !- X,Y,Z Vertex 1 {m}
  99.9746, 50, 1,                         !- X,Y,Z Vertex 2 {m}
  0.0253999999999905, 50, 1,              !- X,Y,Z Vertex 3 {m}
  0.0253999999999905, 50, 2.60081321311226; !- X,Y,Z Vertex 4 {m}

OS:SubSurface,
  {a402b7d9-6cf5-4728-87a1-ca755aff5c56}, !- Handle
  Sub Surface 4,                          !- Name
  FixedWindow,                            !- Sub Surface Type
  ,                                       !- Construction Name
  {cae0df59-a95c-471f-9e4e-4db7dd8c3e32}, !- Surface Name
  ,                                       !- Outside Boundary Condition Object
  ,                                       !- View Factor to Ground
  ,                                       !- Shading Control Name
  ,                                       !- Frame and Divider Name
  ,                                       !- Multiplier
  ,                                       !- Number of Vertices
  100, 0.0254, 2.60162725328934,          !- X,Y,Z Vertex 1 {m}
  100, 0.0254, 1,                         !- X,Y,Z Vertex 2 {m}
  100, 49.9746, 1,                        !- X,Y,Z Vertex 3 {m}
  100, 49.9746, 2.60162725328934;         !- X,Y,Z Vertex 4 {m}

OS:Schedule:Ruleset,
  {79e1307f-c599-4f42-8a21-94f1f5ec4798}, !- Handle
  Cooling Sch,                            !- Name
  {fddbb3b1-6bc9-4846-b9ff-136198102c8e}, !- Schedule Type Limits Name
  {09200c3a-7e51-4b95-8b76-c9e8068733eb}; !- Default Day Schedule Name

OS:Schedule:Day,
  {09200c3a-7e51-4b95-8b76-c9e8068733eb}, !- Handle
  Cooling Sch Default,                    !- Name
  {fddbb3b1-6bc9-4846-b9ff-136198102c8e}, !- Schedule Type Limits Name
  ,                                       !- Interpolate to Timestep
  24,                                     !- Hour 1
  0,                                      !- Minute 1
  28;                                     !- Value Until Time 1

OS:Schedule:Ruleset,
  {509cc51d-d48e-4092-81da-25c7d1ad02f2}, !- Handle
  Heating Sch,                            !- Name
  {fddbb3b1-6bc9-4846-b9ff-136198102c8e}, !- Schedule Type Limits Name
  {71609336-1ed1-4386-9486-b3544e52278e}; !- Default Day Schedule Name

OS:Schedule:Day,
  {71609336-1ed1-4386-9486-b3544e52278e}, !- Handle
  Heating Sch Default,                    !- Name
  {fddbb3b1-6bc9-4846-b9ff-136198102c8e}, !- Schedule Type Limits Name
  ,                                       !- Interpolate to Timestep
  24,                                     !- Hour 1
  0,                                      !- Minute 1
  24;                                     !- Value Until Time 1

OS:ThermostatSetpoint:DualSetpoint,
  {98e97e74-9f63-4bff-8ef3-e2532d96c9ed}, !- Handle
  Thermostat Setpoint Dual Setpoint 1,    !- Name
  {509cc51d-d48e-4092-81da-25c7d1ad02f2}, !- Heating Setpoint Temperature Schedule Name
  {79e1307f-c599-4f42-8a21-94f1f5ec4798}; !- Cooling Setpoint Temperature Schedule Name

OS:ScheduleTypeLimits,
  {fddbb3b1-6bc9-4846-b9ff-136198102c8e}, !- Handle
  Temperature,                            !- Name
  ,                                       !- Lower Limit Value
  ,                                       !- Upper Limit Value
  Continuous,                             !- Numeric Type
  Temperature;                            !- Unit Type

OS:DefaultConstructionSet,
  {c87ff346-3eba-47ef-ad69-293afb49a912}, ! Handle
  ASHRAE_189.1-2009_ClimateZone 4-5 (mdoff)_ConstSet, ! Name
  {159cf76d-d71c-4a88-90cb-916bd5bd9fbc}, ! Default Exterior Surface Constructions Name
  {8e88e8e5-24d0-4ca2-89b8-449ac06e4c7b}, ! Default Interior Surface Constructions Name
  {e05463ef-005a-4f07-a20a-7bca8594ad45}, ! Default Ground Contact Surface Constructions Name
  {b4b2d65a-9947-4487-b8a5-565c3360e572}, ! Default Exterior SubSurface Constructions Name
  {3c584f0d-b3a2-492c-b43e-031658738ab0}, ! Default Interior SubSurface Constructions Name
  {bd6af140-906a-465b-b153-7426ea00920d}, ! Interior Partition Construction Name
  ,                                       ! Space Shading Construction Name
  ,                                       ! Building Shading Construction Name
  ;                                       ! Site Shading Construction Name

OS:DefaultSurfaceConstructions,
  {159cf76d-d71c-4a88-90cb-916bd5bd9fbc}, ! Handle
  ASHRAE_189.1-2009_ClimateZone 4-5 (mdoff)_Exterior_DefSurfCons, ! Name
  {fb27ac9d-7497-409d-a8a5-0b01d3cc93b7}, ! Floor Construction Name
  {3bdfc697-c481-4878-8f32-d6c325dcd567}, ! Wall Construction Name
  {c6c76c11-4ef3-40e1-a377-7d81b08387fb}; ! Roof Ceiling Construction Name

OS:DefaultSurfaceConstructions,
  {8e88e8e5-24d0-4ca2-89b8-449ac06e4c7b}, ! Handle
  000_Interior_DefSurfCons,               ! Name
  {72a67027-5eeb-415e-98bc-2bec90f518a3}, ! Floor Construction Name
  {b3b95da4-5089-4bb9-aefa-29bb5778207c}, ! Wall Construction Name
  {62c4c7ad-6795-4be3-a5d0-3e7fa403e1bc}; ! Roof Ceiling Construction Name

OS:DefaultSurfaceConstructions,
  {e05463ef-005a-4f07-a20a-7bca8594ad45}, ! Handle
  000_Ground_DefSurfCons,                 ! Name
  {fb27ac9d-7497-409d-a8a5-0b01d3cc93b7}, ! Floor Construction Name
  {fb27ac9d-7497-409d-a8a5-0b01d3cc93b7}, ! Wall Construction Name
  {fb27ac9d-7497-409d-a8a5-0b01d3cc93b7}; ! Roof Ceiling Construction Name

OS:DefaultSubSurfaceConstructions,
  {b4b2d65a-9947-4487-b8a5-565c3360e572}, ! Handle
  ASHRAE_189.1-2009_ClimateZone 4-5 (mdoff)_Exterior_DefSubCons, ! Name
  {0443eaa8-9faf-406c-9669-b70182dc7e53}, ! Fixed Window Construction Name
  {0443eaa8-9faf-406c-9669-b70182dc7e53}, ! Operable Window Construction Name
  {fedbd2ba-6d78-44b1-9aaf-f0006744b022}, ! Door Construction Name
  {1b6c8482-52b9-42a5-a7c8-c0de6a7b278f}, ! Glass Door Construction Name
  ,                                       ! Overhead Door Construction Name
  {1b6c8482-52b9-42a5-a7c8-c0de6a7b278f}, ! Skylight Construction Name
  {74a2d6c6-cd5c-4d49-87d6-77b5da37adad}, ! Tubular Daylight Dome Construction Name
  {74a2d6c6-cd5c-4d49-87d6-77b5da37adad}; ! Tubular Daylight Diffuser Construction Name

OS:DefaultSubSurfaceConstructions,
  {3c584f0d-b3a2-492c-b43e-031658738ab0}, ! Handle
  000_Interior_DefSubCons,                ! Name
  {74a2d6c6-cd5c-4d49-87d6-77b5da37adad}, ! Fixed Window Construction Name
  {74a2d6c6-cd5c-4d49-87d6-77b5da37adad}, ! Operable Window Construction Name
  {b23a0596-38aa-4c08-86ad-efbbfd11f3df}, ! Door Construction Name
  {1b6c8482-52b9-42a5-a7c8-c0de6a7b278f}, ! Glass Door Construction Name
  ,                                       ! Overhead Door Construction Name
  {1b6c8482-52b9-42a5-a7c8-c0de6a7b278f}, ! Skylight Construction Name
  {74a2d6c6-cd5c-4d49-87d6-77b5da37adad}, ! Tubular Daylight Dome Construction Name
  {74a2d6c6-cd5c-4d49-87d6-77b5da37adad}; ! Tubular Daylight Diffuser Construction Name

OS:Construction,
  {bd6af140-906a-465b-b153-7426ea00920d}, ! Handle
  000_Interior Partition,                 ! Name
  ,                                       ! Surface Rendering Name
  {a8d270c1-a577-46f4-9044-32a56ef6a463}; ! Layer 1

OS:Construction,
  {fb27ac9d-7497-409d-a8a5-0b01d3cc93b7}, ! Handle
  000_ExtSlabCarpet_4in_ClimateZone 1-8,  ! Name
  ,                                       ! Surface Rendering Name
  {08f14831-5700-4a47-82d1-7c51fc816b0f}, ! Layer 1
  {d773502a-6da4-4643-a731-94b36f51751c}; ! Layer 2

OS:Construction,
  {3bdfc697-c481-4878-8f32-d6c325dcd567}, ! Handle
  ASHRAE_189.1-2009_ExtWall_SteelFrame_ClimateZone 4-8, ! Name
  ,                                       ! Surface Rendering Name
  {a368e9ac-8b39-4a80-9d3d-d81e94604a40}, ! Layer 1
  {a3aa6ec9-ff3a-45c5-bbae-0c06a4111b87}, ! Layer 2
  {28f84577-877c-41e7-8e9d-f2ad110d93f9}; ! Layer 3

OS:Construction,
  {c6c76c11-4ef3-40e1-a377-7d81b08387fb}, ! Handle
  ASHRAE_189.1-2009_ExtRoof_IEAD_ClimateZone 2-5, ! Name
  ,                                       ! Surface Rendering Name
  {cbafc09d-2b07-4bd1-ab4d-15d59f7bbe79}, ! Layer 1
  {0ae916e3-ebda-4844-8b6e-25344f15d837}, ! Layer 2
  {b53f9f25-13e8-466f-ad73-ea816659539f}; ! Layer 3

OS:Construction,
  {72a67027-5eeb-415e-98bc-2bec90f518a3}, ! Handle
  000_Interior Floor,                     ! Name
  ,                                       ! Surface Rendering Name
  {48beecbb-1989-4e6c-a6bc-bcf8a9c4ea37}, ! Layer 1
  {8eb8a679-86f1-4d36-95bf-e5e4586258fd}, ! Layer 2
  {f451988b-3007-48ee-b68b-bebf6db69dd0}; ! Layer 3

OS:Construction,
  {b3b95da4-5089-4bb9-aefa-29bb5778207c}, ! Handle
  000_Interior Wall,                      ! Name
  ,                                       ! Surface Rendering Name
  {44719602-33d5-4560-acd4-e9a85e8a82a7}, ! Layer 1
  {b7551dbc-2e6c-43c5-8bf2-8357a34aa2d1}, ! Layer 2
  {44719602-33d5-4560-acd4-e9a85e8a82a7}; ! Layer 3

OS:Construction,
  {62c4c7ad-6795-4be3-a5d0-3e7fa403e1bc}, ! Handle
  000_Interior Ceiling,                   ! Name
  ,                                       ! Surface Rendering Name
  {f451988b-3007-48ee-b68b-bebf6db69dd0}, ! Layer 1
  {8eb8a679-86f1-4d36-95bf-e5e4586258fd}, ! Layer 2
  {48beecbb-1989-4e6c-a6bc-bcf8a9c4ea37}; ! Layer 3

OS:Construction,
  {0443eaa8-9faf-406c-9669-b70182dc7e53}, ! Handle
  ASHRAE_189.1-2009_ExtWindow_ClimateZone 4-5, ! Name
  ,                                       ! Surface Rendering Name
  {369e1643-cdd5-478f-be37-589960ef8d4c}; ! Layer 1

OS:Construction,
  {fedbd2ba-6d78-44b1-9aaf-f0006744b022}, ! Handle
  000_Exterior Door,                      ! Name
  ,                                       ! Surface Rendering Name
  {961053fb-f6e6-41fd-baab-0325b2d9e735}, ! Layer 1
  {6bac102b-755b-4649-845e-46e417f4fe52}; ! Layer 2

OS:Construction,
  {1b6c8482-52b9-42a5-a7c8-c0de6a7b278f}, ! Handle
  000_Exterior Window,                    ! Name
  ,                                       ! Surface Rendering Name
  {3ec5d515-f490-4360-aaf4-2b47a25e67cd}, ! Layer 1
  {d832d6f6-b02a-44cc-90ab-e39d27ec0c17}, ! Layer 2
  {3ec5d515-f490-4360-aaf4-2b47a25e67cd}; ! Layer 3

OS:Construction,
  {74a2d6c6-cd5c-4d49-87d6-77b5da37adad}, ! Handle
  000_Interior Window,                    ! Name
  ,                                       ! Surface Rendering Name
  {3ec5d515-f490-4360-aaf4-2b47a25e67cd}; ! Layer 1

OS:Construction,
  {b23a0596-38aa-4c08-86ad-efbbfd11f3df}, ! Handle
  000_Interior Door,                      ! Name
  ,                                       ! Surface Rendering Name
  {a8d270c1-a577-46f4-9044-32a56ef6a463}; ! Layer 1

OS:Material,
  {a8d270c1-a577-46f4-9044-32a56ef6a463}, ! Handle
  000_G05 25mm wood,                      ! Name
  MediumSmooth,                           ! Roughness
  0.025399999999999999,                   ! Thickness
  0.14999999999999999,                    ! Conductivity
  608,                                    ! Density
  1630;                                   ! Specific Heat

OS:Material,
  {08f14831-5700-4a47-82d1-7c51fc816b0f}, ! Handle
  MAT-CC05 4 HW CONCRETE,                 ! Name
  Rough,                                  ! Roughness
  0.1016,                                 ! Thickness
  1.3109999999999999,                     ! Conductivity
  2240,                                   ! Density
  836.79999999999995,                     ! Specific Heat
  0.90000000000000002,                    ! Thermal Absorptance
  0.69999999999999996,                    ! Solar Absorptance
  0.69999999999999996;                    ! Visible Absorptance

OS:Material:NoMass,
  {d773502a-6da4-4643-a731-94b36f51751c}, ! Handle
  CP02 CARPET PAD,                        ! Name
  VeryRough,                              ! Roughness
  0.2165,                                 ! Thermal Resistance
  0.90000000000000002,                    ! Thermal Absorptance
  0.69999999999999996,                    ! Solar Absorptance
  0.80000000000000004;                    ! Visible Absorptance

OS:Material:NoMass,
  {a368e9ac-8b39-4a80-9d3d-d81e94604a40}, ! Handle
  MAT-SHEATH,                             ! Name
  Rough,                                  ! Roughness
  0.36259999999999998,                    ! Thermal Resistance
  0.90000000000000002,                    ! Thermal Absorptance
  0.69999999999999996,                    ! Solar Absorptance
  0.69999999999999996;                    ! Visible Absorptance

OS:Material,
  {a3aa6ec9-ff3a-45c5-bbae-0c06a4111b87}, ! Handle
  Wall Insulation [39],                   ! Name
  MediumRough,                            ! Roughness
  0.11840000000000001,                    ! Thickness
  0.044999999999999998,                   ! Conductivity
  265,                                    ! Density
  836.79999999999995,                     ! Specific Heat
  0.90000000000000002,                    ! Thermal Absorptance
  0.69999999999999996,                    ! Solar Absorptance
  0.69999999999999996;                    ! Visible Absorptance

OS:Material,
  {28f84577-877c-41e7-8e9d-f2ad110d93f9}, ! Handle
  1/2IN Gypsum,                           ! Name
  Smooth,                                 ! Roughness
  0.012699999999999999,                   ! Thickness
  0.16,                                   ! Conductivity
  784.89999999999998,                     ! Density
  830,                                    ! Specific Heat
  0.90000000000000002,                    ! Thermal Absorptance
  0.92000000000000004,                    ! Solar Absorptance
  0.92000000000000004;                    ! Visible Absorptance

OS:Material,
  {cbafc09d-2b07-4bd1-ab4d-15d59f7bbe79}, ! Handle
  Roof Membrane,                          ! Name
  VeryRough,                              ! Roughness
  0.0094999999999999998,                  ! Thickness
  0.16,                                   ! Conductivity
  1121.29,                                ! Density
  1460,                                   ! Specific Heat
  0.90000000000000002,                    ! Thermal Absorptance
  0.69999999999999996,                    ! Solar Absorptance
  0.69999999999999996;                    ! Visible Absorptance

OS:Material,
  {0ae916e3-ebda-4844-8b6e-25344f15d837}, ! Handle
  Roof Insulation [21],                   ! Name
  MediumRough,                            ! Roughness
  0.21049999999999999,                    ! Thickness
  0.049000000000000002,                   ! Conductivity
  265,                                    ! Density
  836.79999999999995,                     ! Specific Heat
  0.90000000000000002,                    ! Thermal Absorptance
  0.69999999999999996,                    ! Solar Absorptance
  0.69999999999999996;                    ! Visible Absorptance

OS:Material,
  {b53f9f25-13e8-466f-ad73-ea816659539f}, ! Handle
  Metal Decking,                          ! Name
  MediumSmooth,                           ! Roughness
  0.0015,                                 ! Thickness
  45.006,                                 ! Conductivity
  7680,                                   ! Density
  418.39999999999998,                     ! Specific Heat
  0.90000000000000002,                    ! Thermal Absorptance
  0.69999999999999996,                    ! Solar Absorptance
  0.29999999999999999;                    ! Visible Absorptance

OS:Material,
  {48beecbb-1989-4e6c-a6bc-bcf8a9c4ea37}, ! Handle
  000_F16 Acoustic tile,                  ! Name
  MediumSmooth,                           ! Roughness