
OS:Version,
  {6705f15a-9d45-415f-8193-b8986feef9a8}, !- Handle
  2.0.5;                                  !- Version Identifier

OS:BuildingStory,
  {e23b9271-722b-4b61-96ce-b9f3ed8c6de6}, !- Handle
  Story 1,                                !- Name
  0,                                      !- Nominal Z Coordinate {m}
  4,                                      !- Nominal Floor to Floor Height {m}
  ,                                       !- Default Construction Set Name
  ,                                       !- Default Schedule Set Name
  ;                                       !- Group Rendering Name

OS:Space,
  {58acda4c-1355-4e51-ba31-e3438ed1e9fd}, !- Handle
  Story 1 Core Space,                     !- Name
  ,                                       !- Space Type Name
  ,                                       !- Default Construction Set Name
  ,                                       !- Default Schedule Set Name
  -0,                                     !- Direction of Relative North {deg}
  0,                                      !- X Origin {m}
  0,                                      !- Y Origin {m}
  0,                                      !- Z Origin {m}
  {e23b9271-722b-4b61-96ce-b9f3ed8c6de6}, !- Building Story Name
  {3a871716-3aa7-4068-9594-0658004be715}; !- Thermal Zone Name

OS:Surface,
  {334df37b-7a58-43eb-b77b-d08f8d29d836}, !- Handle
  Surface 1,                              !- Name
  Floor,                                  !- Surface Type
  ,                                       !- Construction Name
  {58acda4c-1355-4e51-ba31-e3438ed1e9fd}, !- Space Name
  Ground,                                 !- Outside Boundary Condition
  ,                                       !- Outside Boundary Condition Object
  NoSun,                                  !- Sun Exposure
  NoWind,                                 !- Wind Exposure
  ,                                       !- View Factor to Ground
  ,                                       !- Number of Vertices
  0, 0, 0,                                !- X,Y,Z Vertex 1 {m}
  0, 50, 0,                               !- X,Y,Z Vertex 2 {m}
  100, 50, 0,                             !- X,Y,Z Vertex 3 {m}
  100, 0, 0;                              !- X,Y,Z Vertex 4 {m}

OS:Surface,
  {c202f1b9-d894-4577-ba12-1747080b8f93}, !- Handle
  Surface 2,                              !- Name
  Wall,                                   !- Surface Type
  ,                                       !- Construction Name
  {58acda4c-1355-4e51-ba31-e3438ed1e9fd}, !- Space Name
  Outdoors,                               !- Outside Boundary Condition
  ,                                       !- Outside Boundary Condition Object
  SunExposed,                             !- Sun Exposure
  WindExposed,                            !- Wind Exposure
  ,                                       !- View Factor to Ground
  ,                                       !- Number of Vertices
  0, 50, 4,                               !- X,Y,Z Vertex 1 {m}
  0, 50, 0,                               !- X,Y,Z Vertex 2 {m}
  0, 0, 0,                                !- X,Y,Z Vertex 3 {m}
  0, 0, 4;                                !- X,Y,Z Vertex 4 {m}

OS:Surface,
  {40e363d4-b349-4e78-a6de-73265863cfde}, !- Handle
  Surface 3,                              !- Name
  Wall,                                   !- Surface Type
  ,                                       !- Construction Name
  {58acda4c-1355-4e51-ba31-e3438ed1e9fd}, !- Space Name
  Outdoors,                               !- Outside Boundary Condition
  ,                                       !- Outside Boundary Condition Object
  SunExposed,                             !- Sun Exposure
  WindExposed,                            !- Wind Exposure
  ,                                       !- View Factor to Ground
  ,                                       !- Number of Vertices
  100, 50, 4,                             !- X,Y,Z Vertex 1 {m}
  100, 50, 0,                             !- X,Y,Z Vertex 2 {m}
  0, 50, 0,                               !- X,Y,Z Vertex 3 {m}
  0, 50, 4;                               !- X,Y,Z Vertex 4 {m}

OS:Surface,
  {285fdf4f-5ddf-4796-b52d-1832379364a6}, !- Handle
  Surface 4,                              !- Name
  Wall,                                   !- Surface Type
  ,                                       !- Construction Name
  {58acda4c-1355-4e51-ba31-e3438ed1e9fd}, !- Space Name
  Outdoors,                               !- Outside Boundary Condition
  ,                                       !- Outside Boundary Condition Object
  SunExposed,                             !- Sun Exposure
  WindExposed,                            !- Wind Exposure
  ,                                       !- View Factor to Ground
  ,                                       !- Number of Vertices
  100, 0, 4,                              !- X,Y,Z Vertex 1 {m}
  100, 0, 0,                              !- X,Y,Z Vertex 2 {m}
  100, 50, 0,                             !- X,Y,Z Vertex 3 {m}
  100, 50, 4;                             !- X,Y,Z Vertex 4 {m}

OS:Surface,
  {3d2a5df7-088f-46a8-ae56-6cb0cc614ab5}, !- Handle
  Surface 5,                              !- Name
  Wall,                                   !- Surface Type
  ,                                       !- Construction Name
  {58acda4c-1355-4e51-ba31-e3438ed1e9fd}, !- Space Name
  Outdoors,                               !- Outside Boundary Condition
  ,                                       !- Outside Boundary Condition Object
  SunExposed,                             !- Sun Exposure
  WindExposed,                            !- Wind Exposure
  ,                                       !- View Factor to Ground
  ,                                       !- Number of Vertices
  0, 0, 4,                                !- X,Y,Z Vertex 1 {m}
  0, 0, 0,                                !- X,Y,Z Vertex 2 {m}
  100, 0, 0,                              !- X,Y,Z Vertex 3 {m}
  100, 0, 4;                              !- X,Y,Z Vertex 4 {m}

OS:Surface,
  {3d8bcf92-aa70-419d-bf35-52477999b1e7}, !- Handle
  Surface 6,                              !- Name
  RoofCeiling,                            !- Surface Type
  ,                                       !- Construction Name
  {58acda4c-1355-4e51-ba31-e3438ed1e9fd}, !- Space Name
  Outdoors,                               !- Outside Boundary Condition
  ,                                       !- Outside Boundary Condition Object
  SunExposed,                             !- Sun Exposure
  WindExposed,                            !- Wind Exposure
  ,                                       !- View Factor to Ground
  ,                                       !- Number of Vertices
  100, 0, 4,                              !- X,Y,Z Vertex 1 {m}
  100, 50, 4,                             !- X,Y,Z Vertex 2 {m}
  0, 50, 4,                               !- X,Y,Z Vertex 3 {m}
  0, 0, 4;                                !- X,Y,Z Vertex 4 {m}

OS:ThermalZone,
  {3a871716-3aa7-4068-9594-0658004be715}, !- Handle
  Story 1 Core Thermal Zone,              !- Name
  ,                                       !- Multiplier
  ,                                       !- Ceiling Height {m}
  ,                                       !- Volume {m3}
  ,                                       !- Floor Area {m2}
  ,                                       !- Zone Inside Convection Algorithm
  ,                                       !- Zone Outside Convection Algorithm
  ,                                       !- Zone Conditioning Equipment List Name
  {c0194179-3001-403f-ae6b-730dc99fde04}, !- Zone Air Inlet Port List
  {7815527a-fc9d-4152-a923-e3e3a33987a1}, !- Zone Air Exhaust Port List
  {da59bfb7-5278-40bf-9a0a-84563f7e420c}, !- Zone Air Node Name
  ,                                       !- Zone Return Air Node Name
  ,                                       !- Primary Daylighting Control Name
  ,                                       !- Fraction of Zone Controlled by Primary Daylighting Control
  ,                                       !- Secondary Daylighting Control Name
  ,                                       !- Fraction of Zone Controlled by Secondary Daylighting Control
  ,                                       !- Illuminance Map Name
  ,                                       !- Group Rendering Name
  {913faf32-dc04-415f-920a-677c3ce06f7c}, !- Thermostat Name
  Yes;                                    !- Use Ideal Air Loads

OS:Node,
  {ef0d4b36-78cf-4a71-b363-8f22c0a98b91}, !- Handle
  Node 1,                                 !- Name
  {da59bfb7-5278-40bf-9a0a-84563f7e420c}, !- Inlet Port
  ;                                       !- Outlet Port

OS:Connection,
  {da59bfb7-5278-40bf-9a0a-84563f7e420c}, !- Handle
  {36ddc574-954b-44f8-ad4f-e29aae657870}, !- Name
  {3a871716-3aa7-4068-9594-0658004be715}, !- Source Object
  11,                                     !- Outlet Port
  {ef0d4b36-78cf-4a71-b363-8f22c0a98b91}, !- Target Object
  2;                                      !- Inlet Port

OS:PortList,
  {c0194179-3001-403f-ae6b-730dc99fde04}, !- Handle
  Port List 1,                            !- Name
  {3a871716-3aa7-4068-9594-0658004be715}; !- HVAC Component

OS:PortList,
  {7815527a-fc9d-4152-a923-e3e3a33987a1}, !- Handle
  Port List 2,                            !- Name
  {3a871716-3aa7-4068-9594-0658004be715}; !- HVAC Component

OS:Sizing:Zone,
  {6ac0e166-1b0e-4068-ba0c-92961aef31a6}, !- Handle
  {3a871716-3aa7-4068-9594-0658004be715}, !- Zone or ZoneList Name
  SupplyAirTemperature,                   !- Zone Cooling Design Supply Air Temperature Input Method
  14,                                     !- Zone Cooling Design Supply Air Temperature {C}
  11.11,                                  !- Zone Cooling Design Supply Air Temperature Difference {deltaC}
  SupplyAirTemperature,                   !- Zone Heating Design Supply Air Temperature Input Method
  40,                                     !- Zone Heating Design Supply Air Temperature {C}
  11.11,                                  !- Zone Heating Design Supply Air Temperature Difference {deltaC}
  0.0085,                                 !- Zone Cooling Design Supply Air Humidity Ratio {kg-H2O/kg-air}
  0.008,                                  !- Zone Heating Design Supply Air Humidity Ratio {kg-H2O/kg-air}
  ,                                       !- Zone Heating Sizing Factor
  ,                                       !- Zone Cooling Sizing Factor
  DesignDay,                              !- Cooling Design Air Flow Method
  ,                                       !- Cooling Design Air Flow Rate {m3/s}
  ,                                       !- Cooling Minimum Air Flow per Zone Floor Area {m3/s-m2}
  ,                                       !- Cooling Minimum Air Flow {m3/s}
  ,                                       !- Cooling Minimum Air Flow Fraction
  DesignDay,                              !- Heating Design Air Flow Method
  ,                                       !- Heating Design Air Flow Rate {m3/s}
  ,                                       !- Heating Maximum Air Flow per Zone Floor Area {m3/s-m2}
  ,                                       !- Heating Maximum Air Flow {m3/s}
  ,                                       !- Heating Maximum Air Flow Fraction
  0.8,                                    !- Design Zone Air Distribution Effectiveness in Cooling Mode
  0.75,                                   !- Design Zone Air Distribution Effectiveness in Heating Mode
  No,                                     !- Account for Dedicated Outdoor Air System
  NeutralSupplyAir,                       !- Dedicated Outdoor Air System Control Strategy
  autosize,                               !- Dedicated Outdoor Air Low Setpoint Temperature for Design {C}
  autosize;                               !- Dedicated Outdoor Air High Setpoint Temperature for Design {C}

OS:ZoneHVAC:EquipmentList,
  {a9287068-1014-47d1-8937-d02a163f75f1}, !- Handle
  Zone HVAC Equipment List 1,             !- Name
  {3a871716-3aa7-4068-9594-0658004be715}; !- Thermal Zone

OS:SubSurface,
  {69a4859f-c4d4-40f0-8a2f-91d365b96171}, !- Handle
  Sub Surface 1,                          !- Name
  FixedWindow,                            !- Sub Surface Type
  ,                                       !- Construction Name
  {285fdf4f-5ddf-4796-b52d-1832379364a6}, !- Surface Name
  ,                                       !- Outside Boundary Condition Object
  ,                                       !- View Factor to Ground
  ,                                       !- Shading Control Name
  ,                                       !- Frame and Divider Name
  ,                                       !- Multiplier
  ,                                       !- Number of Vertices
  100, 0.0254, 2.60162725328934,          !- X,Y,Z Vertex 1 {m}
  100, 0.0254, 1,                         !- X,Y,Z Vertex 2 {m}
  100, 49.9746, 1,                        !- X,Y,Z Vertex 3 {m}
  100, 49.9746, 2.60162725328934;         !- X,Y,Z Vertex 4 {m}

OS:SubSurface,
  {d94247e5-386e-4342-a5cb-eb54a7110f6a}, !- Handle
  Sub Surface 2,                          !- Name
  FixedWindow,                            !- Sub Surface Type
  ,                                       !- Construction Name
  {3d2a5df7-088f-46a8-ae56-6cb0cc614ab5}, !- Surface Name
  ,                                       !- Outside Boundary Condition Object
  ,                                       !- View Factor to Ground
  ,                                       !- Shading Control Name
  ,                                       !- Frame and Divider Name
  ,                                       !- Multiplier
  ,                                       !- Number of Vertices
  0.0254, 0, 2.60081321311226,            !- X,Y,Z Vertex 1 {m}
  0.0254, 0, 1,                           !- X,Y,Z Vertex 2 {m}
  99.9746, 0, 1,                          !- X,Y,Z Vertex 3 {m}
  99.9746, 0, 2.60081321311226;           !- X,Y,Z Vertex 4 {m}

OS:SubSurface,
  {8b87c1e4-9457-4c5b-8f5d-5cec5c6b1e31}, !- Handle
  Sub Surface 3,                          !- Name
  FixedWindow,                            !- Sub Surface Type
  ,                                       !- Construction Name
  {40e363d4-b349-4e78-a6de-73265863cfde}, !- Surface Name
  ,                                       !- Outside Boundary Condition Object
  ,                                       !- View Factor to Ground
  ,                                       !- Shading Control Name
  ,                                       !- Frame and Divider Name
  ,                                       !- Multiplier
  ,                                       !- Number of Vertices
  99.9746, 50, 2.60081321311226,          !- X,Y,Z Vertex 1 {m}
  99.9746, 50, 1,                         !- X,Y,Z Vertex 2 {m}
  0.0253999999999905, 50, 1,              !- X,Y,Z Vertex 3 {m}
  0.0253999999999905, 50, 2.60081321311226; !- X,Y,Z Vertex 4 {m}

OS:SubSurface,
  {a726897c-5514-4ae6-9528-faaaf87a21c9}, !- Handle
  Sub Surface 4,                          !- Name
  FixedWindow,                            !- Sub Surface Type
  ,                                       !- Construction Name
  {c202f1b9-d894-4577-ba12-1747080b8f93}, !- Surface Name
  ,                                       !- Outside Boundary Condition Object
  ,                                       !- View Factor to Ground
  ,                                       !- Shading Control Name
  ,                                       !- Frame and Divider Name
  ,                                       !- Multiplier
  ,                                       !- Number of Vertices
  0, 49.9746, 2.60162725328934,           !- X,Y,Z Vertex 1 {m}
  0, 49.9746, 1,                          !- X,Y,Z Vertex 2 {m}
  0, 0.0254000000000048, 1,               !- X,Y,Z Vertex 3 {m}
  0, 0.0254000000000048, 2.60162725328934; !- X,Y,Z Vertex 4 {m}

OS:Schedule:Ruleset,
  {a9adf764-3de4-413a-ab4d-13295d345405}, !- Handle
  Cooling Sch,                            !- Name
  {8427b42e-a5ac-46a9-9557-b370ae95c5ae}, !- Schedule Type Limits Name
  {4f8cc0d5-d528-435a-a17c-d534f49973ad}; !- Default Day Schedule Name

OS:Schedule:Day,
  {4f8cc0d5-d528-435a-a17c-d534f49973ad}, !- Handle
  Cooling Sch Default,                    !- Name
  {8427b42e-a5ac-46a9-9557-b370ae95c5ae}, !- Schedule Type Limits Name
  ,                                       !- Interpolate to Timestep
  24,                                     !- Hour 1
  0,                                      !- Minute 1
  28;                                     !- Value Until Time 1

OS:Schedule:Ruleset,
  {5adb6eae-42f0-4424-9a52-6e6978f46084}, !- Handle
  Heating Sch,                            !- Name
  {8427b42e-a5ac-46a9-9557-b370ae95c5ae}, !- Schedule Type Limits Name
  {ff043090-dbb0-47c5-b849-cd6884f570b6}; !- Default Day Schedule Name

OS:Schedule:Day,
  {ff043090-dbb0-47c5-b849-cd6884f570b6}, !- Handle
  Heating Sch Default,                    !- Name
  {8427b42e-a5ac-46a9-9557-b370ae95c5ae}, !- Schedule Type Limits Name
  ,                                       !- Interpolate to Timestep
  24,                                     !- Hour 1
  0,                                      !- Minute 1
  24;                                     !- Value Until Time 1

OS:ThermostatSetpoint:DualSetpoint,
  {913faf32-dc04-415f-920a-677c3ce06f7c}, !- Handle
  Thermostat Setpoint Dual Setpoint 1,    !- Name
  {5adb6eae-42f0-4424-9a52-6e6978f46084}, !- Heating Setpoint Temperature Schedule Name
  {a9adf764-3de4-413a-ab4d-13295d345405}; !- Cooling Setpoint Temperature Schedule Name

OS:ScheduleTypeLimits,
  {8427b42e-a5ac-46a9-9557-b370ae95c5ae}, !- Handle
  Temperature,                            !- Name
  ,                                       !- Lower Limit Value
  ,                                       !- Upper Limit Value
  Continuous,                             !- Numeric Type
  Temperature;                            !- Unit Type

OS:DefaultConstructionSet,
  {48eef366-8e8c-417c-8552-d78034151102}, ! Handle
  ASHRAE_189.1-2009_ClimateZone 4-5 (mdoff)_ConstSet, ! Name
  {fffc62ec-4752-4b10-912f-b4aeab54f569}, ! Default Exterior Surface Constructions Name
  {a28bce2c-93d2-4d7d-8a29-8cdbb72da129}, ! Default Interior Surface Constructions Name
  {9f7280ff-8e7c-4a04-8215-e5483f77817a}, ! Default Ground Contact Surface Constructions Name
  {b20c6f81-014e-4e80-8330-a3a7f9665214}, ! Default Exterior SubSurface Constructions Name
  {9c61b5c4-a45b-40bc-8a7a-5fa5b1505e90}, ! Default Interior SubSurface Constructions Name
  {8a7d7da5-72f2-41e1-a1f0-ac9c38829faa}, ! Interior Partition Construction Name
  ,                                       ! Space Shading Construction Name
  ,                                       ! Building Shading Construction Name
  ;                                       ! Site Shading Construction Name

OS:DefaultSurfaceConstructions,
  {fffc62ec-4752-4b10-912f-b4aeab54f569}, ! Handle
  ASHRAE_189.1-2009_ClimateZone 4-5 (mdoff)_Exterior_DefSurfCons, ! Name
  {30ddc117-810d-4c1e-b30b-0ceb40e8d0c2}, ! Floor Construction Name
  {ab7e500f-5439-4baf-b1b7-86677d83050a}, ! Wall Construction Name
  {2aa97711-4dd3-429f-86a7-a2e6b5226d06}; ! Roof Ceiling Construction Name

OS:DefaultSurfaceConstructions,
  {a28bce2c-93d2-4d7d-8a29-8cdbb72da129}, ! Handle
  000_Interior_DefSurfCons,               ! Name
  {7274553e-e0e4-4c10-9857-78f888e0c390}, ! Floor Construction Name
  {8617448c-c6bb-4203-b97a-cd8866acbdee}, ! Wall Construction Name
  {fd6f79f0-f2e0-472e-876e-ca3f0ae51e52}; ! Roof Ceiling Construction Name

OS:DefaultSurfaceConstructions,
  {9f7280ff-8e7c-4a04-8215-e5483f77817a}, ! Handle
  000_Ground_DefSurfCons,                 ! Name
  {30ddc117-810d-4c1e-b30b-0ceb40e8d0c2}, ! Floor Construction Name
  {30ddc117-810d-4c1e-b30b-0ceb40e8d0c2}, ! Wall Construction Name
  {30ddc117-810d-4c1e-b30b-0ceb40e8d0c2}; ! Roof Ceiling Construction Name

OS:DefaultSubSurfaceConstructions,
  {b20c6f81-014e-4e80-8330-a3a7f9665214}, ! Handle
  ASHRAE_189.1-2009_ClimateZone 4-5 (mdoff)_Exterior_DefSubCons, ! Name
  {589a9922-8fb6-45f4-81f6-39566f246abd}, ! Fixed Window Construction Name
  {589a9922-8fb6-45f4-81f6-39566f246abd}, ! Operable Window Construction Name
  {28f3cdd2-3855-4a66-80be-370d7a42b790}, ! Door Construction Name
  {5393d09d-bcae-4d9c-b256-ac40d79c6e6d}, ! Glass Door Construction Name
  ,                                       ! Overhead Door Construction Name
  {5393d09d-bcae-4d9c-b256-ac40d79c6e6d}, ! Skylight Construction Name
  {fb42bb02-b485-45d5-8882-4a859544d5e4}, ! Tubular Daylight Dome Construction Name
  {fb42bb02-b485-45d5-8882-4a859544d5e4}; ! Tubular Daylight Diffuser Construction Name

OS:DefaultSubSurfaceConstructions,
  {9c61b5c4-a45b-40bc-8a7a-5fa5b1505e90}, ! Handle
  000_Interior_DefSubCons,                ! Name
  {fb42bb02-b485-45d5-8882-4a859544d5e4}, ! Fixed Window Construction Name
  {fb42bb02-b485-45d5-8882-4a859544d5e4}, ! Operable Window Construction Name
  {5638cdd0-4387-43ff-a731-ec6567ca40ab}, ! Door Construction Name
  {5393d09d-bcae-4d9c-b256-ac40d79c6e6d}, ! Glass Door Construction Name
  ,                                       ! Overhead Door Construction Name
  {5393d09d-bcae-4d9c-b256-ac40d79c6e6d}, ! Skylight Construction Name
  {fb42bb02-b485-45d5-8882-4a859544d5e4}, ! Tubular Daylight Dome Construction Name
  {fb42bb02-b485-45d5-8882-4a859544d5e4}; ! Tubular Daylight Diffuser Construction Name

OS:Construction,
  {8a7d7da5-72f2-41e1-a1f0-ac9c38829faa}, ! Handle
  000_Interior Partition,                 ! Name
  ,                                       ! Surface Rendering Name
  {708baed9-36a1-45f0-bb7a-a77216b7f72e}; ! Layer 1

OS:Construction,
  {30ddc117-810d-4c1e-b30b-0ceb40e8d0c2}, ! Handle
  000_ExtSlabCarpet_4in_ClimateZone 1-8,  ! Name
  ,                                       ! Surface Rendering Name
  {292e9761-6ffa-4b8f-8ef0-3d9dc941fc3d}, ! Layer 1
  {d24073c8-8d92-47b3-b46d-22335ab3b528}; ! Layer 2

OS:Construction,
  {ab7e500f-5439-4baf-b1b7-86677d83050a}, ! Handle
  ASHRAE_189.1-2009_ExtWall_SteelFrame_ClimateZone 4-8, ! Name
  ,                                       ! Surface Rendering Name
  {ced8b01b-d3cb-43a8-9141-a22f88fb2ef9}, ! Layer 1
  {c80d27e8-4b59-4f97-878c-d4f191bb3780}, ! Layer 2
  {5dc26c9b-d9ce-4b23-b1aa-4772ade1faef}; ! Layer 3

OS:Construction,
  {2aa97711-4dd3-429f-86a7-a2e6b5226d06}, ! Handle
  ASHRAE_189.1-2009_ExtRoof_IEAD_ClimateZone 2-5, ! Name
  ,                                       ! Surface Rendering Name
  {85236333-276e-472d-bf85-6ecc7fe2fff1}, ! Layer 1
  {2d636c64-7bb4-456f-b1b8-35d882a5a91b}, ! Layer 2
  {3b355769-b7a3-44b0-bcec-a7aa41970b22}; ! Layer 3

OS:Construction,
  {7274553e-e0e4-4c10-9857-78f888e0c390}, ! Handle
  000_Interior Floor,                     ! Name
  ,                                       ! Surface Rendering Name
  {3531d64f-3796-4ee1-96a1-6d16dd45c084}, ! Layer 1
  {bb78338d-d5f7-4518-b0b7-ccfdd38befc9}, ! Layer 2
  {76219565-d9fc-4b08-9e6d-a60c1783c57b}; ! Layer 3

OS:Construction,
  {8617448c-c6bb-4203-b97a-cd8866acbdee}, ! Handle
  000_Interior Wall,                      ! Name
  ,                                       ! Surface Rendering Name
  {3f9e95d9-9d2f-4558-ac5f-23ea742e0952}, ! Layer 1
  {3799f2ea-cb1c-4d25-bf3f-08ee8e52b376}, ! Layer 2
  {3f9e95d9-9d2f-4558-ac5f-23ea742e0952}; ! Layer 3

OS:Construction,
  {fd6f79f0-f2e0-472e-876e-ca3f0ae51e52}, ! Handle
  000_Interior Ceiling,                   ! Name
  ,                                       ! Surface Rendering Name
  {76219565-d9fc-4b08-9e6d-a60c1783c57b}, ! Layer 1
  {bb78338d-d5f7-4518-b0b7-ccfdd38befc9}, ! Layer 2
  {3531d64f-3796-4ee1-96a1-6d16dd45c084}; ! Layer 3

OS:Construction,
  {589a9922-8fb6-45f4-81f6-39566f246abd}, ! Handle
  ASHRAE_189.1-2009_ExtWindow_ClimateZone 4-5, ! Name
  ,                                       ! Surface Rendering Name
  {a8b9ecdb-807f-4d77-be1b-ee96d3819384}; ! Layer 1

OS:Construction,
  {28f3cdd2-3855-4a66-80be-370d7a42b790}, ! Handle
  000_Exterior Door,                      ! Name
  ,                                       ! Surface Rendering Name
  {1714c7d1-083f-4a26-847e-2f9e101fe1e2}, ! Layer 1
  {e26ffe3c-67e5-47fd-8ec3-0dc4e5c0553a}; ! Layer 2

OS:Construction,
  {5393d09d-bcae-4d9c-b256-ac40d79c6e6d}, ! Handle
  000_Exterior Window,                    ! Name
  ,                                       ! Surface Rendering Name
  {5263e74b-253a-4f96-9b35-b3ae09b76551}, ! Layer 1
  {cbf434dd-840b-4f73-a36e-cf8cdb7608df}, ! Layer 2
  {5263e74b-253a-4f96-9b35-b3ae09b76551}; ! Layer 3

OS:Construction,
  {fb42bb02-b485-45d5-8882-4a859544d5e4}, ! Handle
  000_Interior Window,                    ! Name
  ,                                       ! Surface Rendering Name
  {5263e74b-253a-4f96-9b35-b3ae09b76551}; ! Layer 1

OS:Construction,
  {5638cdd0-4387-43ff-a731-ec6567ca40ab}, ! Handle
  000_Interior Door,                      ! Name
  ,                                       ! Surface Rendering Name
  {708baed9-36a1-45f0-bb7a-a77216b7f72e}; ! Layer 1

OS:Material,
  {708baed9-36a1-45f0-bb7a-a77216b7f72e}, ! Handle
  000_G05 25mm wood,                      ! Name
  MediumSmooth,                           ! Roughness
  0.025399999999999999,                   ! Thickness
  0.14999999999999999,                    ! Conductivity
  608,                                    ! Density
  1630;                                   ! Specific Heat

OS:Material,
  {292e9761-6ffa-4b8f-8ef0-3d9dc941fc3d}, ! Handle
  MAT-CC05 4 HW CONCRETE,                 ! Name
  Rough,                                  ! Roughness
  0.1016,                                 ! Thickness
  1.3109999999999999,                     ! Conductivity
  2240,                                   ! Density
  836.79999999999995,                     ! Specific Heat
  0.90000000000000002,                    ! Thermal Absorptance
  0.69999999999999996,                    ! Solar Absorptance
  0.69999999999999996;                    ! Visible Absorptance

OS:Material:NoMass,
  {d24073c8-8d92-47b3-b46d-22335ab3b528}, ! Handle
  CP02 CARPET PAD,                        ! Name
  VeryRough,                              ! Roughness
  0.2165,                                 ! Thermal Resistance
  0.90000000000000002,                    ! Thermal Absorptance
  0.69999999999999996,                    ! Solar Absorptance
  0.80000000000000004;                    ! Visible Absorptance

OS:Material:NoMass,
  {ced8b01b-d3cb-43a8-9141-a22f88fb2ef9}, ! Handle
  MAT-SHEATH,                             ! Name
  Rough,                                  ! Roughness
  0.36259999999999998,                    ! Thermal Resistance
  0.90000000000000002,                    ! Thermal Absorptance
  0.69999999999999996,                    ! Solar Absorptance
  0.69999999999999996;                    ! Visible Absorptance

OS:Material,
  {c80d27e8-4b59-4f97-878c-d4f191bb3780}, ! Handle
  Wall Insulation [39],                   ! Name
  MediumRough,                            ! Roughness
  0.11840000000000001,                    ! Thickness
  0.044999999999999998,                   ! Conductivity
  265,                                    ! Density
  836.79999999999995,                     ! Specific Heat
  0.90000000000000002,                    ! Thermal Absorptance
  0.69999999999999996,                    ! Solar Absorptance
  0.69999999999999996;                    ! Visible Absorptance

OS:Material,
  {5dc26c9b-d9ce-4b23-b1aa-4772ade1faef}, ! Handle
  1/2IN Gypsum,                           ! Name
  Smooth,                                 ! Roughness
  0.012699999999999999,                   ! Thickness
  0.16,                                   ! Conductivity
  784.89999999999998,                     ! Density
  830,                                    ! Specific Heat
  0.90000000000000002,                    ! Thermal Absorptance
  0.92000000000000004,                    ! Solar Absorptance
  0.92000000000000004;                    ! Visible Absorptance

OS:Material,
  {85236333-276e-472d-bf85-6ecc7fe2fff1}, ! Handle
  Roof Membrane,                          ! Name
  VeryRough,                              ! Roughness
  0.0094999999999999998,                  ! Thickness
  0.16,                                   ! Conductivity
  1121.29,                                ! Density
  1460,                                   ! Specific Heat
  0.90000000000000002,                    ! Thermal Absorptance
  0.69999999999999996,                    ! Solar Absorptance
  0.69999999999999996;                    ! Visible Absorptance

OS:Material,
  {2d636c64-7bb4-456f-b1b8-35d882a5a91b}, ! Handle
  Roof Insulation [21],                   ! Name
  MediumRough,                            ! Roughness
  0.21049999999999999,                    ! Thickness
  0.049000000000000002,                   ! Conductivity
  265,                                    ! Density
  836.79999999999995,                     ! Specific Heat
  0.90000000000000002,                    ! Thermal Absorptance
  0.69999999999999996,                    ! Solar Absorptance
  0.69999999999999996;                    ! Visible Absorptance

OS:Material,
  {3b355769-b7a3-44b0-bcec-a7aa41970b22}, ! Handle
  Metal Decking,                          ! Name
  MediumSmooth,                           ! Roughness
  0.0015,                                 ! Thickness
  45.006,                                 ! Conductivity
  7680,                                   ! Density
  418.39999999999998,                     ! Specific Heat
  0.90000000000000002,                    ! Thermal Absorptance
  0.69999999999999996,                    ! Solar Absorptance
  0.29999999999999999;                    ! Visible Absorptance

OS:Material,
  {3531d64f-3796-4ee1-96a1-6d16dd45c084}, ! Handle
  000_F16 Acoustic tile,                  ! Name
  MediumSmooth,                           ! Roughness