
OS:Version,
  {c90fc0cd-b29d-4cdc-ae40-ff270ebaa319}, !- Handle
  3.6.0;                                  !- Version Identifier

OS:BuildingStory,
  {c0299d33-e813-477d-aa23-71a5e86bb2d6}, !- Handle
  Story 1,                                !- Name
  0,                                      !- Nominal Z Coordinate {m}
  4,                                      !- Nominal Floor to Floor Height {m}
  ,                                       !- Default Construction Set Name
  ,                                       !- Default Schedule Set Name
  ;                                       !- Group Rendering Name

OS:Space,
  {9b778696-c90f-44e3-b925-d5cb3e31f0fc}, !- Handle
  Story 1 Core Space,                     !- Name
  ,                                       !- Space Type Name
  ,                                       !- Default Construction Set Name
  ,                                       !- Default Schedule Set Name
  -0,                                     !- Direction of Relative North {deg}
  0,                                      !- X Origin {m}
  0,                                      !- Y Origin {m}
  0,                                      !- Z Origin {m}
  {c0299d33-e813-477d-aa23-71a5e86bb2d6}, !- Building Story Name
  {0e6fb1d4-0f5d-4a00-952e-0fb2f6003a37}; !- Thermal Zone Name

OS:Surface,
  {e4f65220-0b4b-4ec1-a6fb-48714b84b275}, !- Handle
  Story 1 Core Space Exterior Ground Floor, !- Name
  Floor,                                  !- Surface Type
  ,                                       !- Construction Name
  {9b778696-c90f-44e3-b925-d5cb3e31f0fc}, !- Space Name
  Ground,                                 !- Outside Boundary Condition
  ,                                       !- Outside Boundary Condition Object
  NoSun,                                  !- Sun Exposure
  NoWind,                                 !- Wind Exposure
  ,                                       !- View Factor to Ground
  ,                                       !- Number of Vertices
  0, 0, 0,                                !- X,Y,Z Vertex 1 {m}
  0, 50, 0,                               !- X,Y,Z Vertex 2 {m}
  100, 50, 0,                             !- X,Y,Z Vertex 3 {m}
  100, 0, 0;                              !- X,Y,Z Vertex 4 {m}

OS:Surface,
  {e85892c8-6bc5-4803-9189-9bfdf5d912c8}, !- Handle
  Story 1 Core Space Exterior Wall 3,     !- Name
  Wall,                                   !- Surface Type
  ,                                       !- Construction Name
  {9b778696-c90f-44e3-b925-d5cb3e31f0fc}, !- Space Name
  Outdoors,                               !- Outside Boundary Condition
  ,                                       !- Outside Boundary Condition Object
  SunExposed,                             !- Sun Exposure
  WindExposed,                            !- Wind Exposure
  ,                                       !- View Factor to Ground
  ,                                       !- Number of Vertices
  0, 50, 4,                               !- X,Y,Z Vertex 1 {m}
  0, 50, 0,                               !- X,Y,Z Vertex 2 {m}
  0, 0, 0,                                !- X,Y,Z Vertex 3 {m}
  0, 0, 4;                                !- X,Y,Z Vertex 4 {m}

OS:Surface,
  {f1637f14-f1ac-442a-a460-92da5501c4cf}, !- Handle
  Story 1 Core Space Exterior Wall 2,     !- Name
  Wall,                                   !- Surface Type
  ,                                       !- Construction Name
  {9b778696-c90f-44e3-b925-d5cb3e31f0fc}, !- Space Name
  Outdoors,                               !- Outside Boundary Condition
  ,                                       !- Outside Boundary Condition Object
  SunExposed,                             !- Sun Exposure
  WindExposed,                            !- Wind Exposure
  ,                                       !- View Factor to Ground
  ,                                       !- Number of Vertices
  100, 50, 4,                             !- X,Y,Z Vertex 1 {m}
  100, 50, 0,                             !- X,Y,Z Vertex 2 {m}
  0, 50, 0,                               !- X,Y,Z Vertex 3 {m}
  0, 50, 4;                               !- X,Y,Z Vertex 4 {m}

OS:Surface,
  {aa1c9778-7fcf-4201-a6de-9380f453854d}, !- Handle
  Story 1 Core Space Exterior Wall 1,     !- Name
  Wall,                                   !- Surface Type
  ,                                       !- Construction Name
  {9b778696-c90f-44e3-b925-d5cb3e31f0fc}, !- Space Name
  Outdoors,                               !- Outside Boundary Condition
  ,                                       !- Outside Boundary Condition Object
  SunExposed,                             !- Sun Exposure
  WindExposed,                            !- Wind Exposure
  ,                                       !- View Factor to Ground
  ,                                       !- Number of Vertices
  100, 0, 4,                              !- X,Y,Z Vertex 1 {m}
  100, 0, 0,                              !- X,Y,Z Vertex 2 {m}
  100, 50, 0,                             !- X,Y,Z Vertex 3 {m}
  100, 50, 4;                             !- X,Y,Z Vertex 4 {m}

OS:Surface,
  {ac816f51-2caf-4aa8-8420-303801504138}, !- Handle
  Story 1 Core Space Exterior Wall,       !- Name
  Wall,                                   !- Surface Type
  ,                                       !- Construction Name
  {9b778696-c90f-44e3-b925-d5cb3e31f0fc}, !- Space Name
  Outdoors,                               !- Outside Boundary Condition
  ,                                       !- Outside Boundary Condition Object
  SunExposed,                             !- Sun Exposure
  WindExposed,                            !- Wind Exposure
  ,                                       !- View Factor to Ground
  ,                                       !- Number of Vertices
  0, 0, 4,                                !- X,Y,Z Vertex 1 {m}
  0, 0, 0,                                !- X,Y,Z Vertex 2 {m}
  100, 0, 0,                              !- X,Y,Z Vertex 3 {m}
  100, 0, 4;                              !- X,Y,Z Vertex 4 {m}

OS:Surface,
  {16a0aca5-f7a5-40ae-b03b-9432eef09470}, !- Handle
  Story 1 Core Space Exterior Roof,       !- Name
  RoofCeiling,                            !- Surface Type
  {f5bc3c15-398e-487e-a777-096aaa1a6de2}, !- Construction Name
  {9b778696-c90f-44e3-b925-d5cb3e31f0fc}, !- Space Name
  OtherSideConditionsModel,               !- Outside Boundary Condition
  {24e90ea6-9066-4b35-8e93-a4dd4d63deb9}, !- Outside Boundary Condition Object
  SunExposed,                             !- Sun Exposure
  WindExposed,                            !- Wind Exposure
  ,                                       !- View Factor to Ground
  ,                                       !- Number of Vertices
  100, 0, 4,                              !- X,Y,Z Vertex 1 {m}
  100, 50, 4,                             !- X,Y,Z Vertex 2 {m}
  0, 50, 4,                               !- X,Y,Z Vertex 3 {m}
  0, 0, 4;                                !- X,Y,Z Vertex 4 {m}

OS:ThermalZone,
  {0e6fb1d4-0f5d-4a00-952e-0fb2f6003a37}, !- Handle
  Story 1 Core Thermal Zone,              !- Name
  ,                                       !- Multiplier
  ,                                       !- Ceiling Height {m}
  ,                                       !- Volume {m3}
  ,                                       !- Floor Area {m2}
  ,                                       !- Zone Inside Convection Algorithm
  ,                                       !- Zone Outside Convection Algorithm
  ,                                       !- Zone Conditioning Equipment List Name
  {a051d0e2-70b8-48c4-9650-11d8735ecf50}, !- Zone Air Inlet Port List
  {db0950f6-8cce-4fcf-badf-d64389f3e9f7}, !- Zone Air Exhaust Port List
  {d7b961a7-605c-4b71-a351-fb0de76821ce}, !- Zone Air Node Name
  {d8ffceb0-47a8-49de-ba04-bb014eec20a8}, !- Zone Return Air Port List
  ,                                       !- Primary Daylighting Control Name
  ,                                       !- Fraction of Zone Controlled by Primary Daylighting Control
  ,                                       !- Secondary Daylighting Control Name
  ,                                       !- Fraction of Zone Controlled by Secondary Daylighting Control
  ,                                       !- Illuminance Map Name
  ,                                       !- Group Rendering Name
  {e575e638-489d-430f-b9a6-fb10c5c01913}, !- Thermostat Name
  No;                                     !- Use Ideal Air Loads

OS:Node,
  {ddae39bc-80fa-46b9-81b5-e8ead86a6998}, !- Handle
  Node 1,                                 !- Name
  {d7b961a7-605c-4b71-a351-fb0de76821ce}, !- Inlet Port
  ;                                       !- Outlet Port

OS:Connection,
  {d7b961a7-605c-4b71-a351-fb0de76821ce}, !- Handle
  {0e6fb1d4-0f5d-4a00-952e-0fb2f6003a37}, !- Source Object
  11,                                     !- Outlet Port
  {ddae39bc-80fa-46b9-81b5-e8ead86a6998}, !- Target Object
  2;                                      !- Inlet Port

OS:PortList,
  {a051d0e2-70b8-48c4-9650-11d8735ecf50}, !- Handle
  {0e6fb1d4-0f5d-4a00-952e-0fb2f6003a37}, !- HVAC Component
  {42705670-8865-4445-98b6-5dfa717be3cb}; !- Port 1

OS:PortList,
  {db0950f6-8cce-4fcf-badf-d64389f3e9f7}, !- Handle
  {0e6fb1d4-0f5d-4a00-952e-0fb2f6003a37}, !- HVAC Component
  {46ccdb28-0930-4804-8977-8d08cd2a4f0e}; !- Port 1

OS:PortList,
  {d8ffceb0-47a8-49de-ba04-bb014eec20a8}, !- Handle
  {0e6fb1d4-0f5d-4a00-952e-0fb2f6003a37}; !- HVAC Component

OS:Sizing:Zone,
  {1a84c67f-155b-4b5c-a5bc-5ed8a3b90210}, !- Handle
  {0e6fb1d4-0f5d-4a00-952e-0fb2f6003a37}, !- Zone or ZoneList Name
  SupplyAirTemperature,                   !- Zone Cooling Design Supply Air Temperature Input Method
  14,                                     !- Zone Cooling Design Supply Air Temperature {C}
  11.11,                                  !- Zone Cooling Design Supply Air Temperature Difference {deltaC}
  SupplyAirTemperature,                   !- Zone Heating Design Supply Air Temperature Input Method
  40,                                     !- Zone Heating Design Supply Air Temperature {C}
  11.11,                                  !- Zone Heating Design Supply Air Temperature Difference {deltaC}
  0.0085,                                 !- Zone Cooling Design Supply Air Humidity Ratio {kg-H2O/kg-air}
  0.008,                                  !- Zone Heating Design Supply Air Humidity Ratio {kg-H2O/kg-air}
  ,                                       !- Zone Heating Sizing Factor
  ,                                       !- Zone Cooling Sizing Factor
  DesignDay,                              !- Cooling Design Air Flow Method
  ,                                       !- Cooling Design Air Flow Rate {m3/s}
  ,                                       !- Cooling Minimum Air Flow per Zone Floor Area {m3/s-m2}
  ,                                       !- Cooling Minimum Air Flow {m3/s}
  ,                                       !- Cooling Minimum Air Flow Fraction
  DesignDay,                              !- Heating Design Air Flow Method
  ,                                       !- Heating Design Air Flow Rate {m3/s}
  ,                                       !- Heating Maximum Air Flow per Zone Floor Area {m3/s-m2}
  ,                                       !- Heating Maximum Air Flow {m3/s}
  ,                                       !- Heating Maximum Air Flow Fraction
  No,                                     !- Account for Dedicated Outdoor Air System
  NeutralSupplyAir,                       !- Dedicated Outdoor Air System Control Strategy
  autosize,                               !- Dedicated Outdoor Air Low Setpoint Temperature for Design {C}
  autosize,                               !- Dedicated Outdoor Air High Setpoint Temperature for Design {C}
  Sensible Load Only No Latent Load,      !- Zone Load Sizing Method
  HumidityRatioDifference,                !- Zone Latent Cooling Design Supply Air Humidity Ratio Input Method
  ,                                       !- Zone Dehumidification Design Supply Air Humidity Ratio {kgWater/kgDryAir}
  0.005,                                  !- Zone Cooling Design Supply Air Humidity Ratio Difference {kgWater/kgDryAir}
  HumidityRatioDifference,                !- Zone Latent Heating Design Supply Air Humidity Ratio Input Method
  ,                                       !- Zone Humidification Design Supply Air Humidity Ratio {kgWater/kgDryAir}
  0.005;                                  !- Zone Humidification Design Supply Air Humidity Ratio Difference {kgWater/kgDryAir}

OS:ZoneHVAC:EquipmentList,
  {f657afd8-337d-42d6-b55e-286f20bfc5ec}, !- Handle
  Zone HVAC Equipment List 1,             !- Name
  {0e6fb1d4-0f5d-4a00-952e-0fb2f6003a37}, !- Thermal Zone
  ,                                       !- Load Distribution Scheme
  {a7fe7bed-8faa-4297-b313-bcb958dad541}, !- Zone Equipment 1
  1,                                      !- Zone Equipment Cooling Sequence 1
  1,                                      !- Zone Equipment Heating or No-Load Sequence 1
  ,                                       !- Zone Equipment Sequential Cooling Fraction Schedule Name 1
  ;                                       !- Zone Equipment Sequential Heating Fraction Schedule Name 1

OS:SubSurface,
  {cfbfa864-ee40-43cb-bdba-a8c2b1146eaa}, !- Handle
  Story 1 Core Space Exterior Wall Window, !- Name
  FixedWindow,                            !- Sub Surface Type
  ,                                       !- Construction Name
  {ac816f51-2caf-4aa8-8420-303801504138}, !- Surface Name
  ,                                       !- Outside Boundary Condition Object
  ,                                       !- View Factor to Ground
  ,                                       !- Frame and Divider Name
  ,                                       !- Multiplier
  ,                                       !- Number of Vertices
  0.0254, 0, 2.60081321311226,            !- X,Y,Z Vertex 1 {m}
  0.0254, 0, 1,                           !- X,Y,Z Vertex 2 {m}
  99.9746, 0, 1,                          !- X,Y,Z Vertex 3 {m}
  99.9746, 0, 2.60081321311226;           !- X,Y,Z Vertex 4 {m}

OS:SubSurface,
  {1e83cf46-5e51-4a8b-84cb-35478c2642cd}, !- Handle
  Story 1 Core Space Exterior Wall 1 Window, !- Name
  FixedWindow,                            !- Sub Surface Type
  ,                                       !- Construction Name
  {aa1c9778-7fcf-4201-a6de-9380f453854d}, !- Surface Name
  ,                                       !- Outside Boundary Condition Object
  ,                                       !- View Factor to Ground
  ,                                       !- Frame and Divider Name
  ,                                       !- Multiplier
  ,                                       !- Number of Vertices
  100, 0.0254, 2.60162725328934,          !- X,Y,Z Vertex 1 {m}
  100, 0.0254, 1,                         !- X,Y,Z Vertex 2 {m}
  100, 49.9746, 1,                        !- X,Y,Z Vertex 3 {m}
  100, 49.9746, 2.60162725328934;         !- X,Y,Z Vertex 4 {m}

OS:SubSurface,
  {7ddc8060-d696-43ac-8326-e0686ca90e82}, !- Handle
  Story 1 Core Space Exterior Wall 2 Window, !- Name
  FixedWindow,                            !- Sub Surface Type
  ,                                       !- Construction Name
  {f1637f14-f1ac-442a-a460-92da5501c4cf}, !- Surface Name
  ,                                       !- Outside Boundary Condition Object
  ,                                       !- View Factor to Ground
  ,                                       !- Frame and Divider Name
  ,                                       !- Multiplier
  ,                                       !- Number of Vertices
  99.9746, 50, 2.60081321311226,          !- X,Y,Z Vertex 1 {m}
  99.9746, 50, 1,                         !- X,Y,Z Vertex 2 {m}
  0.0253999999999905, 50, 1,              !- X,Y,Z Vertex 3 {m}
  0.0253999999999905, 50, 2.60081321311226; !- X,Y,Z Vertex 4 {m}

OS:SubSurface,
  {86241db5-1cec-4377-8da7-1417a4abf4ca}, !- Handle
  Story 1 Core Space Exterior Wall 3 Window, !- Name
  FixedWindow,                            !- Sub Surface Type
  ,                                       !- Construction Name
  {e85892c8-6bc5-4803-9189-9bfdf5d912c8}, !- Surface Name
  ,                                       !- Outside Boundary Condition Object
  ,                                       !- View Factor to Ground
  ,                                       !- Frame and Divider Name
  ,                                       !- Multiplier
  ,                                       !- Number of Vertices
  0, 49.9746, 2.60162725328934,           !- X,Y,Z Vertex 1 {m}
  0, 49.9746, 1,                          !- X,Y,Z Vertex 2 {m}
  0, 0.0254000000000048, 1,               !- X,Y,Z Vertex 3 {m}
  0, 0.0254000000000048, 2.60162725328934; !- X,Y,Z Vertex 4 {m}

OS:PlantLoop,
  {67144683-6b6b-4cf8-b166-b88450efbce8}, !- Handle
  Hot Water Loop,                         !- Name
  Water,                                  !- Fluid Type
  0,                                      !- Glycol Concentration
  ,                                       !- User Defined Fluid Type
  ,                                       !- Plant Equipment Operation Heating Load
  ,                                       !- Plant Equipment Operation Cooling Load
  ,                                       !- Primary Plant Equipment Operation Scheme
  {249e053a-8dd0-4176-af54-5fdd8664632c}, !- Loop Temperature Setpoint Node Name
  ,                                       !- Maximum Loop Temperature {C}
  ,                                       !- Minimum Loop Temperature {C}
  ,                                       !- Maximum Loop Flow Rate {m3/s}
  ,                                       !- Minimum Loop Flow Rate {m3/s}
  Autocalculate,                          !- Plant Loop Volume {m3}
  {d86baff4-79f6-4665-958e-a4de82f431c5}, !- Plant Side Inlet Node Name
  {a0f52ad3-5428-4071-9a98-db2576bc8a60}, !- Plant Side Outlet Node Name
  ,                                       !- Plant Side Branch List Name
  {73002ee0-b0ea-4b96-9d09-ff9420850424}, !- Demand Side Inlet Node Name
  {3a0f2362-9d9d-4148-a36d-be749d872cbf}, !- Demand Side Outlet Node Name
  ,                                       !- Demand Side Branch List Name
  ,                                       !- Demand Side Connector List Name
  Optimal,                                !- Load Distribution Scheme
  {b39ab45b-f0dd-4cc4-965b-7bb91aa87afc}, !- Availability Manager List Name
  ,                                       !- Plant Loop Demand Calculation Scheme
  ,                                       !- Common Pipe Simulation
  ,                                       !- Pressure Simulation Type
  ,                                       !- Plant Equipment Operation Heating Load Schedule
  ,                                       !- Plant Equipment Operation Cooling Load Schedule
  ,                                       !- Primary Plant Equipment Operation Scheme Schedule
  ,                                       !- Component Setpoint Operation Scheme Schedule
  {85d7a5ad-3a68-4543-b54b-fffedff80150}, !- Demand Mixer Name
  {24b2a56a-8116-4b5a-bceb-22cf0d752efc}, !- Demand Splitter Name
  {4554a0a6-80df-4696-96a0-0d1172b2e297}, !- Supply Mixer Name
  {6619ea80-9185-4549-82fa-a16460a237c1}; !- Supply Splitter Name

OS:Node,
  {fdc91656-d4ef-4ac4-9cd7-ab3d96447433}, !- Handle
  Node 2,                                 !- Name
  {d86baff4-79f6-4665-958e-a4de82f431c5}, !- Inlet Port
  {084281a5-92da-45f9-8639-de910c649f51}; !- Outlet Port

OS:Node,
  {249e053a-8dd0-4176-af54-5fdd8664632c}, !- Handle
  Node 3,                                 !- Name
  {22165c8b-633c-4664-b895-fb204c761366}, !- Inlet Port
  {a0f52ad3-5428-4071-9a98-db2576bc8a60}; !- Outlet Port

OS:Node,
  {0c58405e-a30f-487a-b57c-c8280ac83607}, !- Handle
  Node 4,                                 !- Name
  {3b612738-92c6-48e0-a9ca-aacb7cd931b5}, !- Inlet Port
  {90839705-594e-4f80-9ed0-e0dea57dd9f7}; !- Outlet Port

OS:Connector:Mixer,
  {4554a0a6-80df-4696-96a0-0d1172b2e297}, !- Handle
  Connector Mixer 1,                      !- Name
  {12e1aed9-e03b-4686-9d3a-0afbfa0fc0f6}, !- Outlet Branch Name
  {d7cfa24c-141f-4026-b577-3726aa39a2fb}, !- Inlet Branch Name 1
  {de5abc68-d16f-4a02-9b72-6cfe66a600cd}; !- Inlet Branch Name 2

OS:Connector:Splitter,
  {6619ea80-9185-4549-82fa-a16460a237c1}, !- Handle
  Connector Splitter 1,                   !- Name
  {4d997837-9525-42ba-91c3-96ed409a7467}, !- Inlet Branch Name
  {3b612738-92c6-48e0-a9ca-aacb7cd931b5}, !- Outlet Branch Name 1
  {88059773-7003-47be-8c65-f80152f55e8e}; !- Outlet Branch Name 2

OS:Connection,
  {d86baff4-79f6-4665-958e-a4de82f431c5}, !- Handle
  {67144683-6b6b-4cf8-b166-b88450efbce8}, !- Source Object
  14,                                     !- Outlet Port
  {fdc91656-d4ef-4ac4-9cd7-ab3d96447433}, !- Target Object
  2;                                      !- Inlet Port

OS:Connection,
  {3b612738-92c6-48e0-a9ca-aacb7cd931b5}, !- Handle
  {6619ea80-9185-4549-82fa-a16460a237c1}, !- Source Object
  3,                                      !- Outlet Port
  {0c58405e-a30f-487a-b57c-c8280ac83607}, !- Target Object
  2;                                      !- Inlet Port

OS:Connection,
  {a0f52ad3-5428-4071-9a98-db2576bc8a60}, !- Handle
  {249e053a-8dd0-4176-af54-5fdd8664632c}, !- Source Object
  3,                                      !- Outlet Port
  {67144683-6b6b-4cf8-b166-b88450efbce8}, !- Target Object
  15;                                     !- Inlet Port

OS:Node,
  {227680b6-5ce5-44f9-a1f8-250a85b9c6ff}, !- Handle
  Node 5,                                 !- Name
  {73002ee0-b0ea-4b96-9d09-ff9420850424}, !- Inlet Port
  {15beaa86-7b91-4306-91dc-f2392570614d}; !- Outlet Port

OS:Node,
  {8b50a828-9ac0-442b-8ba5-9555a867b7bc}, !- Handle
  Node 6,                                 !- Name
  {9a67904d-b71b-4838-99b7-02180a5c60a5}, !- Inlet Port
  {3a0f2362-9d9d-4148-a36d-be749d872cbf}; !- Outlet Port

OS:Node,
  {8ecfb58f-9628-42fd-bf61-74bb89d24156}, !- Handle
  Node 7,                                 !- Name
  {b17fc4fc-ac87-46a2-8857-676ecb4cceee}, !- Inlet Port
  {038c843e-dcb8-43a6-9903-20d9ba04c87d}; !- Outlet Port

OS:Connector:Mixer,
  {85d7a5ad-3a68-4543-b54b-fffedff80150}, !- Handle
  Connector Mixer 2,                      !- Name
  {9a67904d-b71b-4838-99b7-02180a5c60a5}, !- Outlet Branch Name
  {9e9f6ee8-ce1a-4948-adbe-944b644c3528}; !- Inlet Branch Name 1

OS:Connector:Splitter,
  {24b2a56a-8116-4b5a-bceb-22cf0d752efc}, !- Handle
  Connector Splitter 2,                   !- Name
  {15beaa86-7b91-4306-91dc-f2392570614d}, !- Inlet Branch Name
  {b17fc4fc-ac87-46a2-8857-676ecb4cceee}; !- Outlet Branch Name 1

OS:Connection,
  {73002ee0-b0ea-4b96-9d09-ff9420850424}, !- Handle
  {67144683-6b6b-4cf8-b166-b88450efbce8}, !- Source Object
  17,                                     !- Outlet Port
  {227680b6-5ce5-44f9-a1f8-250a85b9c6ff}, !- Target Object
  2;                                      !- Inlet Port

OS:Connection,
  {15beaa86-7b91-4306-91dc-f2392570614d}, !- Handle
  {227680b6-5ce5-44f9-a1f8-250a85b9c6ff}, !- Source Object
  3,                                      !- Outlet Port
  {24b2a56a-8116-4b5a-bceb-22cf0d752efc}, !- Target Object
  2;                                      !- Inlet Port

OS:Connection,
  {b17fc4fc-ac87-46a2-8857-676ecb4cceee}, !- Handle
  {24b2a56a-8116-4b5a-bceb-22cf0d752efc}, !- Source Object
  3,                                      !- Outlet Port
  {8ecfb58f-9628-42fd-bf61-74bb89d24156}, !- Target Object
  2;                                      !- Inlet Port

OS:Connection,
  {9a67904d-b71b-4838-99b7-02180a5c60a5}, !- Handle
  {85d7a5ad-3a68-4543-b54b-fffedff80150}, !- Source Object
  2,                                      !- Outlet Port
  {8b50a828-9ac0-442b-8ba5-9555a867b7bc}, !- Target Object
  2;                                      !- Inlet Port

OS:Connection,
  {3a0f2362-9d9d-4148-a36d-be749d872cbf}, !- Handle
  {8b50a828-9ac0-442b-8ba5-9555a867b7bc}, !- Source Object
  3,                                      !- Outlet Port
  {67144683-6b6b-4cf8-b166-b88450efbce8}, !- Target Object
  18;                                     !- Inlet Port

OS:Sizing:Plant,
  {18b02953-9f12-495d-9598-e207378b28bd}, !- Handle
  {67144683-6b6b-4cf8-b166-b88450efbce8}, !- Plant or Condenser Loop Name
  Heating,                                !- Loop Type
  82,                                     !- Design Loop Exit Temperature {C}
  11,                                     !- Loop Design Temperature Difference {deltaC}
  NonCoincident,                          !- Sizing Option
  1,                                      !- Zone Timesteps in Averaging Window
  None;                                   !- Coincident Sizing Factor Mode

OS:AvailabilityManagerAssignmentList,
  {b39ab45b-f0dd-4cc4-965b-7bb91aa87afc}, !- Handle
  Plant Loop 1 AvailabilityManagerAssignmentList; !- Name

OS:Pump:VariableSpeed,
  {15036ddf-fbde-478a-a5f4-a2ab9913b6e6}, !- Handle
  Pump Variable Speed 1,                  !- Name
  {084281a5-92da-45f9-8639-de910c649f51}, !- Inlet Node Name
  {d37fa65b-8773-446e-b281-fa34af04c7a3}, !- Outlet Node Name
  ,                                       !- Rated Flow Rate {m3/s}
  ,                                       !- Rated Pump Head {Pa}
  ,                                       !- Rated Power Consumption {W}
  ,                                       !- Motor Efficiency
  ,                                       !- Fraction of Motor Inefficiencies to Fluid Stream
  ,                                       !- Coefficient 1 of the Part Load Performance Curve
  ,                                       !- Coefficient 2 of the Part Load Performance Curve
  ,                                       !- Coefficient 3 of the Part Load Performance Curve
  ,                                       !- Coefficient 4 of the Part Load Performance Curve
  ,                                       !- Minimum Flow Rate {m3/s}
  Intermittent,                           !- Pump Control Type
  ,                                       !- Pump Flow Rate Schedule Name
  ,                                       !- Pump Curve Name
  ,                                       !- Impeller Diameter {m}
  ,                                       !- VFD Control Type
  ,                                       !- Pump RPM Schedule Name
  ,                                       !- Minimum Pressure Schedule {Pa}
  ,                                       !- Maximum Pressure Schedule {Pa}
  ,                                       !- Minimum RPM Schedule {rev/min}
  ,                                       !- Maximum RPM Schedule {rev/min}
  ,                                       !- Zone Name
  0.5,                                    !- Skin Loss Radiative Fraction
  PowerPerFlowPerPressure,                !- Design Power Sizing Method
  348701.1,                               !- Design Electric Power per Unit Flow Rate {W/(m3/s)}
  1.282051282,                            !- Design Shaft Power per Unit Flow Rate per Unit Head {W-s/m3-Pa}
  0,                                      !- Design Minimum Flow Rate Fraction
  General;                                !- End-Use Subcategory

OS:Boiler:HotWater,
  {16e07b3a-601e-4ab7-bc69-856fd999f86a}, !- Handle
  Boiler Hot Water 1,                     !- Name
  ,                                       !- Fuel Type
  ,                                       !- Nominal Capacity {W}
  ,                                       !- Nominal Thermal Efficiency
  LeavingBoiler,                          !- Efficiency Curve Temperature Evaluation Variable
  {f33d3d52-6b8e-4872-a346-177269ea985a}, !- Normalized Boiler Efficiency Curve Name
  ,                                       !- Design Water Flow Rate {m3/s}
  ,                                       !- Minimum Part Load Ratio
  ,                                       !- Maximum Part Load Ratio
  ,                                       !- Optimum Part Load Ratio
  {90839705-594e-4f80-9ed0-e0dea57dd9f7}, !- Boiler Water Inlet Node Name
  {51b219aa-b55b-4773-8990-dfa99c314e63}, !- Boiler Water Outlet Node Name
  99,                                     !- Water Outlet Upper Temperature Limit {C}
  ConstantFlow,                           !- Boiler Flow Mode
  0,                                      !- Parasitic Electric Load {W}
  1,                                      !- Sizing Factor
  General;                                !- End-Use Subcategory

OS:Curve:Biquadratic,
  {f33d3d52-6b8e-4872-a346-177269ea985a}, !- Handle
  Boiler Efficiency,                      !- Name
  1,                                      !- Coefficient1 Constant
  0,                                      !- Coefficient2 x
  0,                                      !- Coefficient3 x**2
  0,                                      !- Coefficient4 y
  0,                                      !- Coefficient5 y**2
  0,                                      !- Coefficient6 x*y
  0,                                      !- Minimum Value of x
  1,                                      !- Maximum Value of x
  0,                                      !- Minimum Value of y
  1,                                      !- Maximum Value of y
  ,                                       !- Minimum Curve Output
  ,                                       !- Maximum Curve Output
  Dimensionless,                          !- Input Unit Type for X
  Dimensionless,                          !- Input Unit Type for Y
  Dimensionless;                          !- Output Unit Type

OS:Node,
  {d0137f32-3154-4884-8934-02772cebfb5e}, !- Handle
  Node 8,                                 !- Name
  {d37fa65b-8773-446e-b281-fa34af04c7a3}, !- Inlet Port
  {4d997837-9525-42ba-91c3-96ed409a7467}; !- Outlet Port

OS:Connection,
  {084281a5-92da-45f9-8639-de910c649f51}, !- Handle