
OS:Version,
  {109a06ad-8b34-4572-b4a6-c41b7db11db5}, !- Handle
  3.0.1;                                  !- Version Identifier

OS:BuildingStory,
  {fb4c88e9-9373-4fe8-9e67-7d680f72cf12}, !- Handle
  Story 1,                                !- Name
  0,                                      !- Nominal Z Coordinate {m}
  4,                                      !- Nominal Floor to Floor Height {m}
  ,                                       !- Default Construction Set Name
  ,                                       !- Default Schedule Set Name
  ;                                       !- Group Rendering Name

OS:Space,
  {9ca23c6d-00f2-4817-b19f-50773eccd6f3}, !- Handle
  Story 1 Core Space,                     !- Name
  ,                                       !- Space Type Name
  ,                                       !- Default Construction Set Name
  ,                                       !- Default Schedule Set Name
  -0,                                     !- Direction of Relative North {deg}
  0,                                      !- X Origin {m}
  0,                                      !- Y Origin {m}
  0,                                      !- Z Origin {m}
  {fb4c88e9-9373-4fe8-9e67-7d680f72cf12}, !- Building Story Name
  {758e9a5b-5976-46e8-a9bd-6bee201c5d33}; !- Thermal Zone Name

OS:Surface,
  {2b21fe4e-3ebb-4c18-b0ae-363b6d0acdae}, !- Handle
  Surface 1,                              !- Name
  Floor,                                  !- Surface Type
  ,                                       !- Construction Name
  {9ca23c6d-00f2-4817-b19f-50773eccd6f3}, !- Space Name
  Ground,                                 !- Outside Boundary Condition
  ,                                       !- Outside Boundary Condition Object
  NoSun,                                  !- Sun Exposure
  NoWind,                                 !- Wind Exposure
  ,                                       !- View Factor to Ground
  ,                                       !- Number of Vertices
  0, 0, 0,                                !- X,Y,Z Vertex 1 {m}
  0, 50, 0,                               !- X,Y,Z Vertex 2 {m}
  100, 50, 0,                             !- X,Y,Z Vertex 3 {m}
  100, 0, 0;                              !- X,Y,Z Vertex 4 {m}

OS:Surface,
  {0dc313c1-6ff2-47dc-9a35-0b7cd64abec2}, !- Handle
  Surface 2,                              !- Name
  Wall,                                   !- Surface Type
  ,                                       !- Construction Name
  {9ca23c6d-00f2-4817-b19f-50773eccd6f3}, !- Space Name
  Outdoors,                               !- Outside Boundary Condition
  ,                                       !- Outside Boundary Condition Object
  SunExposed,                             !- Sun Exposure
  WindExposed,                            !- Wind Exposure
  ,                                       !- View Factor to Ground
  ,                                       !- Number of Vertices
  0, 50, 4,                               !- X,Y,Z Vertex 1 {m}
  0, 50, 0,                               !- X,Y,Z Vertex 2 {m}
  0, 0, 0,                                !- X,Y,Z Vertex 3 {m}
  0, 0, 4;                                !- X,Y,Z Vertex 4 {m}

OS:Surface,
  {94c060be-75a3-40d2-b8fc-f3ea907fa08e}, !- Handle
  Surface 3,                              !- Name
  Wall,                                   !- Surface Type
  ,                                       !- Construction Name
  {9ca23c6d-00f2-4817-b19f-50773eccd6f3}, !- Space Name
  Outdoors,                               !- Outside Boundary Condition
  ,                                       !- Outside Boundary Condition Object
  SunExposed,                             !- Sun Exposure
  WindExposed,                            !- Wind Exposure
  ,                                       !- View Factor to Ground
  ,                                       !- Number of Vertices
  100, 50, 4,                             !- X,Y,Z Vertex 1 {m}
  100, 50, 0,                             !- X,Y,Z Vertex 2 {m}
  0, 50, 0,                               !- X,Y,Z Vertex 3 {m}
  0, 50, 4;                               !- X,Y,Z Vertex 4 {m}

OS:Surface,
  {4eceb32d-a971-4b52-8909-20127da80254}, !- Handle
  Surface 4,                              !- Name
  Wall,                                   !- Surface Type
  ,                                       !- Construction Name
  {9ca23c6d-00f2-4817-b19f-50773eccd6f3}, !- Space Name
  Outdoors,                               !- Outside Boundary Condition
  ,                                       !- Outside Boundary Condition Object
  SunExposed,                             !- Sun Exposure
  WindExposed,                            !- Wind Exposure
  ,                                       !- View Factor to Ground
  ,                                       !- Number of Vertices
  100, 0, 4,                              !- X,Y,Z Vertex 1 {m}
  100, 0, 0,                              !- X,Y,Z Vertex 2 {m}
  100, 50, 0,                             !- X,Y,Z Vertex 3 {m}
  100, 50, 4;                             !- X,Y,Z Vertex 4 {m}

OS:Surface,
  {afc6f154-4480-458f-b1ee-9108c481e4c8}, !- Handle
  Surface 5,                              !- Name
  Wall,                                   !- Surface Type
  ,                                       !- Construction Name
  {9ca23c6d-00f2-4817-b19f-50773eccd6f3}, !- Space Name
  Outdoors,                               !- Outside Boundary Condition
  ,                                       !- Outside Boundary Condition Object
  SunExposed,                             !- Sun Exposure
  WindExposed,                            !- Wind Exposure
  ,                                       !- View Factor to Ground
  ,                                       !- Number of Vertices
  0, 0, 4,                                !- X,Y,Z Vertex 1 {m}
  0, 0, 0,                                !- X,Y,Z Vertex 2 {m}
  100, 0, 0,                              !- X,Y,Z Vertex 3 {m}
  100, 0, 4;                              !- X,Y,Z Vertex 4 {m}

OS:Surface,
  {85ab978f-4759-45fb-bb13-7a8e1d39c527}, !- Handle
  Surface 6,                              !- Name
  RoofCeiling,                            !- Surface Type
  ,                                       !- Construction Name
  {9ca23c6d-00f2-4817-b19f-50773eccd6f3}, !- Space Name
  Outdoors,                               !- Outside Boundary Condition
  ,                                       !- Outside Boundary Condition Object
  SunExposed,                             !- Sun Exposure
  WindExposed,                            !- Wind Exposure
  ,                                       !- View Factor to Ground
  ,                                       !- Number of Vertices
  100, 0, 4,                              !- X,Y,Z Vertex 1 {m}
  100, 50, 4,                             !- X,Y,Z Vertex 2 {m}
  0, 50, 4,                               !- X,Y,Z Vertex 3 {m}
  0, 0, 4;                                !- X,Y,Z Vertex 4 {m}

OS:ThermalZone,
  {758e9a5b-5976-46e8-a9bd-6bee201c5d33}, !- Handle
  Story 1 Core Thermal Zone,              !- Name
  ,                                       !- Multiplier
  ,                                       !- Ceiling Height {m}
  ,                                       !- Volume {m3}
  ,                                       !- Floor Area {m2}
  ,                                       !- Zone Inside Convection Algorithm
  ,                                       !- Zone Outside Convection Algorithm
  ,                                       !- Zone Conditioning Equipment List Name
  {4d381942-ec13-49fd-914d-19a96f8a86c8}, !- Zone Air Inlet Port List
  {a1b99eb6-82db-4477-98dd-859d237ece7b}, !- Zone Air Exhaust Port List
  {33e08038-1207-4261-acfc-0e5f4bbdf1c4}, !- Zone Air Node Name
  {020af286-0281-410c-b5fb-7d52a9fcfeae}, !- Zone Return Air Port List
  ,                                       !- Primary Daylighting Control Name
  ,                                       !- Fraction of Zone Controlled by Primary Daylighting Control
  ,                                       !- Secondary Daylighting Control Name
  ,                                       !- Fraction of Zone Controlled by Secondary Daylighting Control
  ,                                       !- Illuminance Map Name
  ,                                       !- Group Rendering Name
  {ee78b346-c1ba-45cb-a58d-5d8aa9370c98}, !- Thermostat Name
  Yes;                                    !- Use Ideal Air Loads

OS:Node,
  {61133c68-2322-44fe-9eff-728ffdfe58c9}, !- Handle
  Node 1,                                 !- Name
  {33e08038-1207-4261-acfc-0e5f4bbdf1c4}, !- Inlet Port
  ;                                       !- Outlet Port

OS:Connection,
  {33e08038-1207-4261-acfc-0e5f4bbdf1c4}, !- Handle
  {b5589397-0de9-4ecc-805e-57c1702b47c7}, !- Name
  {758e9a5b-5976-46e8-a9bd-6bee201c5d33}, !- Source Object
  11,                                     !- Outlet Port
  {61133c68-2322-44fe-9eff-728ffdfe58c9}, !- Target Object
  2;                                      !- Inlet Port

OS:PortList,
  {4d381942-ec13-49fd-914d-19a96f8a86c8}, !- Handle
  {d80f3acf-6adc-42e3-8bde-4ac398ad9e24}, !- Name
  {758e9a5b-5976-46e8-a9bd-6bee201c5d33}; !- HVAC Component

OS:PortList,
  {a1b99eb6-82db-4477-98dd-859d237ece7b}, !- Handle
  {ff889370-6b90-426b-a186-f7b4df45111e}, !- Name
  {758e9a5b-5976-46e8-a9bd-6bee201c5d33}; !- HVAC Component

OS:PortList,
  {020af286-0281-410c-b5fb-7d52a9fcfeae}, !- Handle
  {7a9976e6-b1d5-4f02-8a77-5ec3089979cd}, !- Name
  {758e9a5b-5976-46e8-a9bd-6bee201c5d33}; !- HVAC Component

OS:Sizing:Zone,
  {6505d598-5b24-4188-b3b8-7e7254fa7c96}, !- Handle
  {758e9a5b-5976-46e8-a9bd-6bee201c5d33}, !- Zone or ZoneList Name
  SupplyAirTemperature,                   !- Zone Cooling Design Supply Air Temperature Input Method
  14,                                     !- Zone Cooling Design Supply Air Temperature {C}
  11.11,                                  !- Zone Cooling Design Supply Air Temperature Difference {deltaC}
  SupplyAirTemperature,                   !- Zone Heating Design Supply Air Temperature Input Method
  40,                                     !- Zone Heating Design Supply Air Temperature {C}
  11.11,                                  !- Zone Heating Design Supply Air Temperature Difference {deltaC}
  0.0085,                                 !- Zone Cooling Design Supply Air Humidity Ratio {kg-H2O/kg-air}
  0.008,                                  !- Zone Heating Design Supply Air Humidity Ratio {kg-H2O/kg-air}
  ,                                       !- Zone Heating Sizing Factor
  ,                                       !- Zone Cooling Sizing Factor
  DesignDay,                              !- Cooling Design Air Flow Method
  ,                                       !- Cooling Design Air Flow Rate {m3/s}
  ,                                       !- Cooling Minimum Air Flow per Zone Floor Area {m3/s-m2}
  ,                                       !- Cooling Minimum Air Flow {m3/s}
  ,                                       !- Cooling Minimum Air Flow Fraction
  DesignDay,                              !- Heating Design Air Flow Method
  ,                                       !- Heating Design Air Flow Rate {m3/s}
  ,                                       !- Heating Maximum Air Flow per Zone Floor Area {m3/s-m2}
  ,                                       !- Heating Maximum Air Flow {m3/s}
  ,                                       !- Heating Maximum Air Flow Fraction
  No,                                     !- Account for Dedicated Outdoor Air System
  NeutralSupplyAir,                       !- Dedicated Outdoor Air System Control Strategy
  autosize,                               !- Dedicated Outdoor Air Low Setpoint Temperature for Design {C}
  autosize;                               !- Dedicated Outdoor Air High Setpoint Temperature for Design {C}

OS:ZoneHVAC:EquipmentList,
  {0b396d42-cfc8-46be-b918-04abd2fcc328}, !- Handle
  Zone HVAC Equipment List 1,             !- Name
  {758e9a5b-5976-46e8-a9bd-6bee201c5d33}; !- Thermal Zone

OS:SubSurface,
  {9065de58-f406-42ca-a1bb-5ad0915d6cf5}, !- Handle
  Sub Surface 1,                          !- Name
  FixedWindow,                            !- Sub Surface Type
  ,                                       !- Construction Name
  {4eceb32d-a971-4b52-8909-20127da80254}, !- Surface Name
  ,                                       !- Outside Boundary Condition Object
  ,                                       !- View Factor to Ground
  ,                                       !- Shading Control Name
  ,                                       !- Frame and Divider Name
  ,                                       !- Multiplier
  ,                                       !- Number of Vertices
  100, 0.0254, 2.60162725328934,          !- X,Y,Z Vertex 1 {m}
  100, 0.0254, 1,                         !- X,Y,Z Vertex 2 {m}
  100, 49.9746, 1,                        !- X,Y,Z Vertex 3 {m}
  100, 49.9746, 2.60162725328934;         !- X,Y,Z Vertex 4 {m}

OS:SubSurface,
  {2698615e-9690-4122-b949-eb7777f1a6ea}, !- Handle
  Sub Surface 2,                          !- Name
  FixedWindow,                            !- Sub Surface Type
  ,                                       !- Construction Name
  {afc6f154-4480-458f-b1ee-9108c481e4c8}, !- Surface Name
  ,                                       !- Outside Boundary Condition Object
  ,                                       !- View Factor to Ground
  ,                                       !- Shading Control Name
  ,                                       !- Frame and Divider Name
  ,                                       !- Multiplier
  ,                                       !- Number of Vertices
  0.0254, 0, 2.60081321311226,            !- X,Y,Z Vertex 1 {m}
  0.0254, 0, 1,                           !- X,Y,Z Vertex 2 {m}
  99.9746, 0, 1,                          !- X,Y,Z Vertex 3 {m}
  99.9746, 0, 2.60081321311226;           !- X,Y,Z Vertex 4 {m}

OS:SubSurface,
  {ee1920ef-20d6-4fb0-8339-1c463149f4cc}, !- Handle
  Sub Surface 3,                          !- Name
  FixedWindow,                            !- Sub Surface Type
  ,                                       !- Construction Name
  {94c060be-75a3-40d2-b8fc-f3ea907fa08e}, !- Surface Name
  ,                                       !- Outside Boundary Condition Object
  ,                                       !- View Factor to Ground
  ,                                       !- Shading Control Name
  ,                                       !- Frame and Divider Name
  ,                                       !- Multiplier
  ,                                       !- Number of Vertices
  99.9746, 50, 2.60081321311226,          !- X,Y,Z Vertex 1 {m}
  99.9746, 50, 1,                         !- X,Y,Z Vertex 2 {m}
  0.0253999999999905, 50, 1,              !- X,Y,Z Vertex 3 {m}
  0.0253999999999905, 50, 2.60081321311226; !- X,Y,Z Vertex 4 {m}

OS:SubSurface,
  {06b17cbd-a2fb-40f3-a49e-da9b6ce333fd}, !- Handle
  Sub Surface 4,                          !- Name
  FixedWindow,                            !- Sub Surface Type
  ,                                       !- Construction Name
  {0dc313c1-6ff2-47dc-9a35-0b7cd64abec2}, !- Surface Name
  ,                                       !- Outside Boundary Condition Object
  ,                                       !- View Factor to Ground
  ,                                       !- Shading Control Name
  ,                                       !- Frame and Divider Name
  ,                                       !- Multiplier
  ,                                       !- Number of Vertices
  0, 49.9746, 2.60162725328934,           !- X,Y,Z Vertex 1 {m}
  0, 49.9746, 1,                          !- X,Y,Z Vertex 2 {m}
  0, 0.0254000000000048, 1,               !- X,Y,Z Vertex 3 {m}
  0, 0.0254000000000048, 2.60162725328934; !- X,Y,Z Vertex 4 {m}

OS:Schedule:Ruleset,
  {ee9132dc-2bcd-4d1a-8057-43d8d7ca26d6}, !- Handle
  Cooling Sch,                            !- Name
  {6351d361-cd3b-4168-ae33-bc6d0e4f161c}, !- Schedule Type Limits Name
  {ca0bc6c9-bec0-4a9d-a114-5b9acd0334b4}; !- Default Day Schedule Name

OS:Schedule:Day,
  {ca0bc6c9-bec0-4a9d-a114-5b9acd0334b4}, !- Handle
  Cooling Sch Default,                    !- Name
  {6351d361-cd3b-4168-ae33-bc6d0e4f161c}, !- Schedule Type Limits Name
  ,                                       !- Interpolate to Timestep
  24,                                     !- Hour 1
  0,                                      !- Minute 1
  28;                                     !- Value Until Time 1

OS:Schedule:Ruleset,
  {c204b8dd-a8e3-4f83-8798-86f3036cccee}, !- Handle
  Heating Sch,                            !- Name
  {6351d361-cd3b-4168-ae33-bc6d0e4f161c}, !- Schedule Type Limits Name
  {17248597-b994-42fc-ae31-a4c747def1f4}; !- Default Day Schedule Name

OS:Schedule:Day,
  {17248597-b994-42fc-ae31-a4c747def1f4}, !- Handle
  Heating Sch Default,                    !- Name
  {6351d361-cd3b-4168-ae33-bc6d0e4f161c}, !- Schedule Type Limits Name
  ,                                       !- Interpolate to Timestep
  24,                                     !- Hour 1
  0,                                      !- Minute 1
  24;                                     !- Value Until Time 1

OS:ThermostatSetpoint:DualSetpoint,
  {ee78b346-c1ba-45cb-a58d-5d8aa9370c98}, !- Handle
  Thermostat Setpoint Dual Setpoint 1,    !- Name
  {c204b8dd-a8e3-4f83-8798-86f3036cccee}, !- Heating Setpoint Temperature Schedule Name
  {ee9132dc-2bcd-4d1a-8057-43d8d7ca26d6}; !- Cooling Setpoint Temperature Schedule Name

OS:ScheduleTypeLimits,
  {6351d361-cd3b-4168-ae33-bc6d0e4f161c}, !- Handle
  Temperature,                            !- Name
  ,                                       !- Lower Limit Value
  ,                                       !- Upper Limit Value
  Continuous,                             !- Numeric Type
  Temperature;                            !- Unit Type

OS:DefaultConstructionSet,
  {e64ff33a-4814-4484-98fd-8fd22aa24f15}, ! Handle
  ASHRAE_189.1-2009_ClimateZone 4-5 (mdoff)_ConstSet, ! Name
  {153bd8d3-ad1b-42b5-b477-388fbb60b7f2}, ! Default Exterior Surface Constructions Name
  {c68c316b-a161-4ccb-9a99-8d422ebf4412}, ! Default Interior Surface Constructions Name
  {39002c3e-ac10-4b31-90f9-1c5618de7ba7}, ! Default Ground Contact Surface Constructions Name
  {ac88a892-a3c9-448a-95b8-baabc5dbf46b}, ! Default Exterior SubSurface Constructions Name
  {65b37360-f967-49a6-b94b-5272fdcc648a}, ! Default Interior SubSurface Constructions Name
  {2a358314-5652-429c-bc6a-def87559fc38}, ! Interior Partition Construction Name
  ,                                       ! Space Shading Construction Name
  ,                                       ! Building Shading Construction Name
  ,                                       ! Site Shading Construction Name
  ;                                       !- Adiabatic Surface Construction Name

OS:DefaultSurfaceConstructions,
  {153bd8d3-ad1b-42b5-b477-388fbb60b7f2}, ! Handle
  ASHRAE_189.1-2009_ClimateZone 4-5 (mdoff)_Exterior_DefSurfCons, ! Name
  {e0ce97bc-dadb-474b-8b9e-a5438a28e0bd}, ! Floor Construction Name
  {fed9e9c0-60e9-47e3-993c-32310477a01b}, ! Wall Construction Name
  {37430a3d-2bda-4df8-912d-e98148ee291c}; ! Roof Ceiling Construction Name

OS:DefaultSurfaceConstructions,
  {c68c316b-a161-4ccb-9a99-8d422ebf4412}, ! Handle
  000_Interior_DefSurfCons,               ! Name
  {1dbb4393-4ca1-438c-bd7a-792d43b7a9b3}, ! Floor Construction Name
  {3b8602e9-8bb3-4b9f-8f0a-ecaf6debde4d}, ! Wall Construction Name
  {86a7741e-202a-4519-83b1-0fd86ebb4587}; ! Roof Ceiling Construction Name

OS:DefaultSurfaceConstructions,
  {39002c3e-ac10-4b31-90f9-1c5618de7ba7}, ! Handle
  000_Ground_DefSurfCons,                 ! Name
  {e0ce97bc-dadb-474b-8b9e-a5438a28e0bd}, ! Floor Construction Name
  {e0ce97bc-dadb-474b-8b9e-a5438a28e0bd}, ! Wall Construction Name
  {e0ce97bc-dadb-474b-8b9e-a5438a28e0bd}; ! Roof Ceiling Construction Name

OS:DefaultSubSurfaceConstructions,
  {ac88a892-a3c9-448a-95b8-baabc5dbf46b}, ! Handle
  ASHRAE_189.1-2009_ClimateZone 4-5 (mdoff)_Exterior_DefSubCons, ! Name
  {a38598d2-b02d-45ed-b091-39fc94778c6c}, ! Fixed Window Construction Name
  {a38598d2-b02d-45ed-b091-39fc94778c6c}, ! Operable Window Construction Name
  {49e65f75-d6f5-4e23-8d8e-9002131812c6}, ! Door Construction Name
  {ed142ea1-b7f8-487f-b50a-2597dac1c9bd}, ! Glass Door Construction Name
  ,                                       ! Overhead Door Construction Name
  {ed142ea1-b7f8-487f-b50a-2597dac1c9bd}, ! Skylight Construction Name
  {cd2377c3-787d-4651-86eb-89867cc759f5}, ! Tubular Daylight Dome Construction Name
  {cd2377c3-787d-4651-86eb-89867cc759f5}; ! Tubular Daylight Diffuser Construction Name

OS:DefaultSubSurfaceConstructions,
  {65b37360-f967-49a6-b94b-5272fdcc648a}, ! Handle
  000_Interior_DefSubCons,                ! Name
  {cd2377c3-787d-4651-86eb-89867cc759f5}, ! Fixed Window Construction Name
  {cd2377c3-787d-4651-86eb-89867cc759f5}, ! Operable Window Construction Name
  {04d7bd76-a037-4510-ba68-0b594d1e4fdb}, ! Door Construction Name
  {ed142ea1-b7f8-487f-b50a-2597dac1c9bd}, ! Glass Door Construction Name
  ,                                       ! Overhead Door Construction Name
  {ed142ea1-b7f8-487f-b50a-2597dac1c9bd}, ! Skylight Construction Name
  {cd2377c3-787d-4651-86eb-89867cc759f5}, ! Tubular Daylight Dome Construction Name
  {cd2377c3-787d-4651-86eb-89867cc759f5}; ! Tubular Daylight Diffuser Construction Name

OS:Construction,
  {2a358314-5652-429c-bc6a-def87559fc38}, ! Handle
  000_Interior Partition,                 ! Name
  ,                                       ! Surface Rendering Name
  {bfea24b5-d398-4e8a-8a96-8e050caf8f3f}; ! Layer 1

OS:Construction,
  {e0ce97bc-dadb-474b-8b9e-a5438a28e0bd}, ! Handle
  000_ExtSlabCarpet_4in_ClimateZone 1-8,  ! Name
  ,                                       ! Surface Rendering Name
  {5e11e9b1-a0f2-4cc0-9eb2-04f91d711614}, ! Layer 1
  {22d6667d-9607-4290-afc4-feacfc7c5553}; ! Layer 2

OS:Construction,
  {fed9e9c0-60e9-47e3-993c-32310477a01b}, ! Handle
  ASHRAE_189.1-2009_ExtWall_SteelFrame_ClimateZone 4-8, ! Name
  ,                                       ! Surface Rendering Name
  {9d1cd5c8-1a73-4ee6-ac3b-1b57472000c7}, ! Layer 1
  {944f273f-8a3f-4fab-a566-d63b7aa82c98}, ! Layer 2
  {4011fd23-15e5-43c7-8577-9a182e162b20}; ! Layer 3

OS:Construction,
  {37430a3d-2bda-4df8-912d-e98148ee291c}, ! Handle
  ASHRAE_189.1-2009_ExtRoof_IEAD_ClimateZone 2-5, ! Name
  ,                                       ! Surface Rendering Name
  {d33776de-94fc-474a-919b-22fd13329368}, ! Layer 1
  {296c7501-3428-4fdc-8400-d2c4a6c6cf46}, ! Layer 2
  {3e616164-f761-4b3f-b99c-3571dca4b4e9}; ! Layer 3

OS:Construction,
  {1dbb4393-4ca1-438c-bd7a-792d43b7a9b3}, ! Handle
  000_Interior Floor,                     ! Name
  ,                                       ! Surface Rendering Name
  {f4ff5799-12c4-4d53-8e0d-b1e7fabb7ec9}, ! Layer 1
  {c94946b4-18be-4765-a67d-67bc7420665e}, ! Layer 2
  {00572a64-c86a-478b-8251-53756b395132}; ! Layer 3

OS:Construction,
  {3b8602e9-8bb3-4b9f-8f0a-ecaf6debde4d}, ! Handle
  000_Interior Wall,                      ! Name
  ,                                       ! Surface Rendering Name
  {ed03096d-f687-48dc-a893-f96a4812b3ac}, ! Layer 1
  {cedb1d08-6949-40b3-b303-2a61c40a8dff}, ! Layer 2
  {ed03096d-f687-48dc-a893-f96a4812b3ac}; ! Layer 3

OS:Construction,
  {86a7741e-202a-4519-83b1-0fd86ebb4587}, ! Handle
  000_Interior Ceiling,                   ! Name
  ,                                       ! Surface Rendering Name
  {00572a64-c86a-478b-8251-53756b395132}, ! Layer 1
  {c94946b4-18be-4765-a67d-67bc7420665e}, ! Layer 2
  {f4ff5799-12c4-4d53-8e0d-b1e7fabb7ec9}; ! Layer 3

OS:Construction,
  {a38598d2-b02d-45ed-b091-39fc94778c6c}, ! Handle
  ASHRAE_189.1-2009_ExtWindow_ClimateZone 4-5, ! Name
  ,                                       ! Surface Rendering Name
  {7c4eaa07-244b-4383-bef5-5cc687e5ea32}; ! Layer 1

OS:Construction,
  {49e65f75-d6f5-4e23-8d8e-9002131812c6}, ! Handle
  000_Exterior Door,                      ! Name
  ,                                       ! Surface Rendering Name
  {2ab52467-f241-4c2c-85a5-4028e2220b41}, ! Layer 1
  {9c27bb27-e59e-4014-a2ea-092b1ed5be4a}; ! Layer 2

OS:Construction,
  {ed142ea1-b7f8-487f-b50a-2597dac1c9bd}, ! Handle
  000_Exterior Window,                    ! Name
  ,                                       ! Surface Rendering Name
  {366ee5d7-4f57-417c-9ffe-7152915a1e4d}, ! Layer 1
  {39d3376a-7090-4e63-b17e-e6edc30dc4b5}, ! Layer 2
  {366ee5d7-4f57-417c-9ffe-7152915a1e4d}; ! Layer 3

OS:Construction,
  {cd2377c3-787d-4651-86eb-89867cc759f5}, ! Handle
  000_Interior Window,                    ! Name
  ,                                       ! Surface Rendering Name
  {366ee5d7-4f57-417c-9ffe-7152915a1e4d}; ! Layer 1

OS:Construction,
  {04d7bd76-a037-4510-ba68-0b594d1e4fdb}, ! Handle
  000_Interior Door,                      ! Name
  ,                                       ! Surface Rendering Name
  {bfea24b5-d398-4e8a-8a96-8e050caf8f3f}; ! Layer 1

OS:Material,
  {bfea24b5-d398-4e8a-8a96-8e050caf8f3f}, !- Handle
  000_G05 25mm wood,                      !- Name
  MediumSmooth,                           !- Roughness
  0.025399999999999999,                   !- Thickness {m}
  0.14999999999999999,                    !- Conductivity {W/m-K}
  608,                                    !- Density {kg/m3}
  1630;                                   !- Specific Heat {J/kg-K}

OS:Material,
  {5e11e9b1-a0f2-4cc0-9eb2-04f91d711614}, !- Handle
  MAT-CC05 4 HW CONCRETE,                 !- Name
  Rough,                                  !- Roughness
  0.1016,                                 !- Thickness {m}
  1.3109999999999999,                     !- Conductivity {W/m-K}
  2240,                                   !- Density {kg/m3}
  836.8,                                  !- Specific Heat {J/kg-K}
  0.90000000000000002,                    !- Thermal Absorptance
  0.69999999999999996,                    !- Solar Absorptance
  0.69999999999999996;                    !- Visible Absorptance

OS:Material:NoMass,
  {22d6667d-9607-4290-afc4-feacfc7c5553}, ! Handle
  CP02 CARPET PAD,                        ! Name
  VeryRough,                              ! Roughness
  0.2165,                                 ! Thermal Resistance
  0.90000000000000002,                    ! Thermal Absorptance
  0.69999999999999996,                    ! Solar Absorptance
  0.80000000000000004;                    ! Visible Absorptance

OS:Material:NoMass,
  {9d1cd5c8-1a73-4ee6-ac3b-1b57472000c7}, ! Handle
  MAT-SHEATH,                             ! Name
  Rough,                                  ! Roughness
  0.36259999999999998,                    ! Thermal Resistance
  0.90000000000000002,                    ! Thermal Absorptance
  0.69999999999999996,                    ! Solar Absorptance
  0.69999999999999996;                    ! Visible Absorptance

OS:Material,
  {944f273f-8a3f-4fab-a566-d63b7aa82c98}, !- Handle
  Wall Insulation [39],                   !- Name
  MediumRough,                            !- Roughness
  0.11840000000000001,                    !- Thickness {m}
  0.044999999999999998,                   !- Conductivity {W/m-K}
  265,                                    !- Density {kg/m3}
  836.8,                                  !- Specific Heat {J/kg-K}
  0.90000000000000002,                    !- Thermal Absorptance
  0.69999999999999996,                    !- Solar Absorptance
  0.69999999999999996;                    !- Visible Absorptance

OS:Material,
  {4011fd23-15e5-43c7-8577-9a182e162b20}, !- Handle
  1/2IN Gypsum,                           !- Name
  Smooth,                                 !- Roughness
  0.012699999999999999,                   !- Thickness {m}
  0.16,                                   !- Conductivity {W/m-K}
  784.89999999999998,                     !- Density {kg/m3}
  830,                                    !- Specific Heat {J/kg-K}
  0.90000000000000002,                    !- Thermal Absorptance
  0.92000000000000004,                    !- Solar Absorptance
  0.92000000000000004;                    !- Visible Absorptance

OS:Material,
  {d33776de-94fc-474a-919b-22fd13329368}, !- Handle
  Roof Membrane,                          !- Name
  VeryRough,                              !- Roughness
  0.0094999999999999998,                  !- Thickness {m}
  0.16,                                   !- Conductivity {W/m-K}
  1121.29,                                !- Density {kg/m3}
  1460,                                   !- Specific Heat {J/kg-K}
  0.90000000000000002,                    !- Thermal Absorptance
  0.69999999999999996,                    !- Solar Absorptance
  0.69999999999999996;                    !- Visible Absorptance

OS:Material,
  {296c7501-3428-4fdc-8400-d2c4a6c6cf46}, !- Handle
  Roof Insulation [21],                   !- Name
  MediumRough,                            !- Roughness
  0.21049999999999999,                    !- Thickness {m}
  0.049000000000000002,                   !- Conductivity {W/m-K}
  265,                                    !- Density {kg/m3}
  836.8,                                  !- Specific Heat {J/kg-K}
  0.90000000000000002,                    !- Thermal Absorptance
  0.69999999999999996,                    !- Solar Absorptance
  0.69999999999999996;                    !- Visible Absorptance

OS:Material,
  {3e616164-f761-4b3f-b99c-3571dca4b4e9}, !- Handle
  Metal Decking,                          !- Name
  MediumSmooth,                           !- Roughness
  0.0015,                                 !- Thickness {m}
  45.006,                                 !- Conductivity {W/m-K}
  7680,                                   !- Density {kg/m3}
  418.4,                                  !- Specific Heat {J/kg-K}