
OS:Version,
  {fa6c946e-ad43-49c9-8032-b73003900b31}, !- Handle
  3.4.0;                                  !- Version Identifier

OS:BuildingStory,
  {8a4ba224-6b13-4974-9147-a5719ffe0bce}, !- Handle
  Story 1,                                !- Name
  0,                                      !- Nominal Z Coordinate {m}
  4,                                      !- Nominal Floor to Floor Height {m}
  ,                                       !- Default Construction Set Name
  ,                                       !- Default Schedule Set Name
  ;                                       !- Group Rendering Name

OS:Space,
  {f83869db-4fb3-4674-b0b2-584ba9385a2b}, !- Handle
  Story 1 Core Space,                     !- Name
  ,                                       !- Space Type Name
  ,                                       !- Default Construction Set Name
  ,                                       !- Default Schedule Set Name
  -0,                                     !- Direction of Relative North {deg}
  0,                                      !- X Origin {m}
  0,                                      !- Y Origin {m}
  0,                                      !- Z Origin {m}
  {8a4ba224-6b13-4974-9147-a5719ffe0bce}, !- Building Story Name
  {f33701b5-8dac-4bb9-9883-fa7debe3735d}; !- Thermal Zone Name

OS:Surface,
  {ad51540b-4ce6-4407-8252-e90a942a31bf}, !- Handle
  Story 1 Core Space Exterior Ground Floor, !- Name
  Floor,                                  !- Surface Type
  ,                                       !- Construction Name
  {f83869db-4fb3-4674-b0b2-584ba9385a2b}, !- Space Name
  Ground,                                 !- Outside Boundary Condition
  ,                                       !- Outside Boundary Condition Object
  NoSun,                                  !- Sun Exposure
  NoWind,                                 !- Wind Exposure
  ,                                       !- View Factor to Ground
  ,                                       !- Number of Vertices
  0, 0, 0,                                !- X,Y,Z Vertex 1 {m}
  0, 50, 0,                               !- X,Y,Z Vertex 2 {m}
  100, 50, 0,                             !- X,Y,Z Vertex 3 {m}
  100, 0, 0;                              !- X,Y,Z Vertex 4 {m}

OS:Surface,
  {5f271e85-a085-4b4d-9cec-0b65433ad141}, !- Handle
  Story 1 Core Space Exterior Wall 3,     !- Name
  Wall,                                   !- Surface Type
  ,                                       !- Construction Name
  {f83869db-4fb3-4674-b0b2-584ba9385a2b}, !- Space Name
  Outdoors,                               !- Outside Boundary Condition
  ,                                       !- Outside Boundary Condition Object
  SunExposed,                             !- Sun Exposure
  WindExposed,                            !- Wind Exposure
  ,                                       !- View Factor to Ground
  ,                                       !- Number of Vertices
  0, 50, 4,                               !- X,Y,Z Vertex 1 {m}
  0, 50, 0,                               !- X,Y,Z Vertex 2 {m}
  0, 0, 0,                                !- X,Y,Z Vertex 3 {m}
  0, 0, 4;                                !- X,Y,Z Vertex 4 {m}

OS:Surface,
  {4eb25283-3160-423c-bd4e-18c94e6aff99}, !- Handle
  Story 1 Core Space Exterior Wall 2,     !- Name
  Wall,                                   !- Surface Type
  ,                                       !- Construction Name
  {f83869db-4fb3-4674-b0b2-584ba9385a2b}, !- Space Name
  Outdoors,                               !- Outside Boundary Condition
  ,                                       !- Outside Boundary Condition Object
  SunExposed,                             !- Sun Exposure
  WindExposed,                            !- Wind Exposure
  ,                                       !- View Factor to Ground
  ,                                       !- Number of Vertices
  100, 50, 4,                             !- X,Y,Z Vertex 1 {m}
  100, 50, 0,                             !- X,Y,Z Vertex 2 {m}
  0, 50, 0,                               !- X,Y,Z Vertex 3 {m}
  0, 50, 4;                               !- X,Y,Z Vertex 4 {m}

OS:Surface,
  {9b61f10a-8b2f-4a87-8b93-c79ba20bb59e}, !- Handle
  Story 1 Core Space Exterior Wall 1,     !- Name
  Wall,                                   !- Surface Type
  ,                                       !- Construction Name
  {f83869db-4fb3-4674-b0b2-584ba9385a2b}, !- Space Name
  Outdoors,                               !- Outside Boundary Condition
  ,                                       !- Outside Boundary Condition Object
  SunExposed,                             !- Sun Exposure
  WindExposed,                            !- Wind Exposure
  ,                                       !- View Factor to Ground
  ,                                       !- Number of Vertices
  100, 0, 4,                              !- X,Y,Z Vertex 1 {m}
  100, 0, 0,                              !- X,Y,Z Vertex 2 {m}
  100, 50, 0,                             !- X,Y,Z Vertex 3 {m}
  100, 50, 4;                             !- X,Y,Z Vertex 4 {m}

OS:Surface,
  {8ca79b4f-21b1-429a-8ec5-41a2e0595c83}, !- Handle
  Story 1 Core Space Exterior Wall,       !- Name
  Wall,                                   !- Surface Type
  ,                                       !- Construction Name
  {f83869db-4fb3-4674-b0b2-584ba9385a2b}, !- Space Name
  Outdoors,                               !- Outside Boundary Condition
  ,                                       !- Outside Boundary Condition Object
  SunExposed,                             !- Sun Exposure
  WindExposed,                            !- Wind Exposure
  ,                                       !- View Factor to Ground
  ,                                       !- Number of Vertices
  0, 0, 4,                                !- X,Y,Z Vertex 1 {m}
  0, 0, 0,                                !- X,Y,Z Vertex 2 {m}
  100, 0, 0,                              !- X,Y,Z Vertex 3 {m}
  100, 0, 4;                              !- X,Y,Z Vertex 4 {m}

OS:Surface,
  {5f4b07b6-bd19-44a9-9fc4-c22e69af788f}, !- Handle
  Story 1 Core Space Exterior Roof,       !- Name
  RoofCeiling,                            !- Surface Type
  ,                                       !- Construction Name
  {f83869db-4fb3-4674-b0b2-584ba9385a2b}, !- Space Name
  Outdoors,                               !- Outside Boundary Condition
  ,                                       !- Outside Boundary Condition Object
  SunExposed,                             !- Sun Exposure
  WindExposed,                            !- Wind Exposure
  ,                                       !- View Factor to Ground
  ,                                       !- Number of Vertices
  100, 0, 4,                              !- X,Y,Z Vertex 1 {m}
  100, 50, 4,                             !- X,Y,Z Vertex 2 {m}
  0, 50, 4,                               !- X,Y,Z Vertex 3 {m}
  0, 0, 4;                                !- X,Y,Z Vertex 4 {m}

OS:ThermalZone,
  {f33701b5-8dac-4bb9-9883-fa7debe3735d}, !- Handle
  Story 1 Core Thermal Zone,              !- Name
  ,                                       !- Multiplier
  ,                                       !- Ceiling Height {m}
  ,                                       !- Volume {m3}
  ,                                       !- Floor Area {m2}
  ,                                       !- Zone Inside Convection Algorithm
  ,                                       !- Zone Outside Convection Algorithm
  ,                                       !- Zone Conditioning Equipment List Name
  {7b49f36a-9b39-432b-ad5a-8ab1ff43dc75}, !- Zone Air Inlet Port List
  {585f3070-fc3e-4893-9a93-b6fe153fedb5}, !- Zone Air Exhaust Port List
  {9fc66a3b-2589-48f7-956a-a0230594d12f}, !- Zone Air Node Name
  {a6257068-784b-40ae-ac1b-6f2361f16d36}, !- Zone Return Air Port List
  ,                                       !- Primary Daylighting Control Name
  ,                                       !- Fraction of Zone Controlled by Primary Daylighting Control
  ,                                       !- Secondary Daylighting Control Name
  ,                                       !- Fraction of Zone Controlled by Secondary Daylighting Control
  ,                                       !- Illuminance Map Name
  ,                                       !- Group Rendering Name
  {7e425b7e-42ea-401e-a124-dcdb4ab97ca5}, !- Thermostat Name
  Yes;                                    !- Use Ideal Air Loads

OS:Node,
  {ea36fef7-379c-4628-bdf1-d894ee35f6cc}, !- Handle
  Node 1,                                 !- Name
  {9fc66a3b-2589-48f7-956a-a0230594d12f}, !- Inlet Port
  ;                                       !- Outlet Port

OS:Connection,
  {9fc66a3b-2589-48f7-956a-a0230594d12f}, !- Handle
  {f33701b5-8dac-4bb9-9883-fa7debe3735d}, !- Source Object
  11,                                     !- Outlet Port
  {ea36fef7-379c-4628-bdf1-d894ee35f6cc}, !- Target Object
  2;                                      !- Inlet Port

OS:PortList,
  {7b49f36a-9b39-432b-ad5a-8ab1ff43dc75}, !- Handle
  {f33701b5-8dac-4bb9-9883-fa7debe3735d}; !- HVAC Component

OS:PortList,
  {585f3070-fc3e-4893-9a93-b6fe153fedb5}, !- Handle
  {f33701b5-8dac-4bb9-9883-fa7debe3735d}; !- HVAC Component

OS:PortList,
  {a6257068-784b-40ae-ac1b-6f2361f16d36}, !- Handle
  {f33701b5-8dac-4bb9-9883-fa7debe3735d}; !- HVAC Component

OS:Sizing:Zone,
  {bcea94f7-12f3-4b24-a3b2-f1ba960a66a1}, !- Handle
  {f33701b5-8dac-4bb9-9883-fa7debe3735d}, !- Zone or ZoneList Name
  SupplyAirTemperature,                   !- Zone Cooling Design Supply Air Temperature Input Method
  14,                                     !- Zone Cooling Design Supply Air Temperature {C}
  11.11,                                  !- Zone Cooling Design Supply Air Temperature Difference {deltaC}
  SupplyAirTemperature,                   !- Zone Heating Design Supply Air Temperature Input Method
  40,                                     !- Zone Heating Design Supply Air Temperature {C}
  11.11,                                  !- Zone Heating Design Supply Air Temperature Difference {deltaC}
  0.0085,                                 !- Zone Cooling Design Supply Air Humidity Ratio {kg-H2O/kg-air}
  0.008,                                  !- Zone Heating Design Supply Air Humidity Ratio {kg-H2O/kg-air}
  ,                                       !- Zone Heating Sizing Factor
  ,                                       !- Zone Cooling Sizing Factor
  DesignDay,                              !- Cooling Design Air Flow Method
  ,                                       !- Cooling Design Air Flow Rate {m3/s}
  ,                                       !- Cooling Minimum Air Flow per Zone Floor Area {m3/s-m2}
  ,                                       !- Cooling Minimum Air Flow {m3/s}
  ,                                       !- Cooling Minimum Air Flow Fraction
  DesignDay,                              !- Heating Design Air Flow Method
  ,                                       !- Heating Design Air Flow Rate {m3/s}
  ,                                       !- Heating Maximum Air Flow per Zone Floor Area {m3/s-m2}
  ,                                       !- Heating Maximum Air Flow {m3/s}
  ,                                       !- Heating Maximum Air Flow Fraction
  No,                                     !- Account for Dedicated Outdoor Air System
  NeutralSupplyAir,                       !- Dedicated Outdoor Air System Control Strategy
  autosize,                               !- Dedicated Outdoor Air Low Setpoint Temperature for Design {C}
  autosize;                               !- Dedicated Outdoor Air High Setpoint Temperature for Design {C}

OS:ZoneHVAC:EquipmentList,
  {e1a76feb-accb-4cb4-81ab-bf714ff2fa43}, !- Handle
  Zone HVAC Equipment List 1,             !- Name
  {f33701b5-8dac-4bb9-9883-fa7debe3735d}; !- Thermal Zone

OS:SubSurface,
  {4a91255f-d107-41d3-8dbb-1287f839c0bf}, !- Handle
  Story 1 Core Space Exterior Wall Window, !- Name
  FixedWindow,                            !- Sub Surface Type
  ,                                       !- Construction Name
  {8ca79b4f-21b1-429a-8ec5-41a2e0595c83}, !- Surface Name
  ,                                       !- Outside Boundary Condition Object
  ,                                       !- View Factor to Ground
  ,                                       !- Frame and Divider Name
  ,                                       !- Multiplier
  ,                                       !- Number of Vertices
  0.0254, 0, 2.60081321311226,            !- X,Y,Z Vertex 1 {m}
  0.0254, 0, 1,                           !- X,Y,Z Vertex 2 {m}
  99.9746, 0, 1,                          !- X,Y,Z Vertex 3 {m}
  99.9746, 0, 2.60081321311226;           !- X,Y,Z Vertex 4 {m}

OS:SubSurface,
  {83268dee-efe0-4bba-981f-934472099b51}, !- Handle
  Story 1 Core Space Exterior Wall 1 Window, !- Name
  FixedWindow,                            !- Sub Surface Type
  ,                                       !- Construction Name
  {9b61f10a-8b2f-4a87-8b93-c79ba20bb59e}, !- Surface Name
  ,                                       !- Outside Boundary Condition Object
  ,                                       !- View Factor to Ground
  ,                                       !- Frame and Divider Name
  ,                                       !- Multiplier
  ,                                       !- Number of Vertices
  100, 0.0254, 2.60162725328934,          !- X,Y,Z Vertex 1 {m}
  100, 0.0254, 1,                         !- X,Y,Z Vertex 2 {m}
  100, 49.9746, 1,                        !- X,Y,Z Vertex 3 {m}
  100, 49.9746, 2.60162725328934;         !- X,Y,Z Vertex 4 {m}

OS:SubSurface,
  {32386820-4bdb-46ed-b4c7-649e754f824b}, !- Handle
  Story 1 Core Space Exterior Wall 2 Window, !- Name
  FixedWindow,                            !- Sub Surface Type
  ,                                       !- Construction Name
  {4eb25283-3160-423c-bd4e-18c94e6aff99}, !- Surface Name
  ,                                       !- Outside Boundary Condition Object
  ,                                       !- View Factor to Ground
  ,                                       !- Frame and Divider Name
  ,                                       !- Multiplier
  ,                                       !- Number of Vertices
  99.9746, 50, 2.60081321311226,          !- X,Y,Z Vertex 1 {m}
  99.9746, 50, 1,                         !- X,Y,Z Vertex 2 {m}
  0.0253999999999905, 50, 1,              !- X,Y,Z Vertex 3 {m}
  0.0253999999999905, 50, 2.60081321311226; !- X,Y,Z Vertex 4 {m}

OS:SubSurface,
  {1f1f8e07-520f-4ac4-8c83-6df0fde156c3}, !- Handle
  Story 1 Core Space Exterior Wall 3 Window, !- Name
  FixedWindow,                            !- Sub Surface Type
  ,                                       !- Construction Name
  {5f271e85-a085-4b4d-9cec-0b65433ad141}, !- Surface Name
  ,                                       !- Outside Boundary Condition Object
  ,                                       !- View Factor to Ground
  ,                                       !- Frame and Divider Name
  ,                                       !- Multiplier
  ,                                       !- Number of Vertices
  0, 49.9746, 2.60162725328934,           !- X,Y,Z Vertex 1 {m}
  0, 49.9746, 1,                          !- X,Y,Z Vertex 2 {m}
  0, 0.0254000000000048, 1,               !- X,Y,Z Vertex 3 {m}
  0, 0.0254000000000048, 2.60162725328934; !- X,Y,Z Vertex 4 {m}

OS:Schedule:Ruleset,
  {83cc34fc-84bd-465c-9e8f-794fa6468573}, !- Handle
  Cooling Sch,                            !- Name
  {e74de413-1b9b-400e-9913-4244ef0113f0}, !- Schedule Type Limits Name
  {b76efbad-6a95-4cb1-af3a-5a642d671f43}; !- Default Day Schedule Name

OS:Schedule:Day,
  {b76efbad-6a95-4cb1-af3a-5a642d671f43}, !- Handle
  Cooling Sch Default,                    !- Name
  {e74de413-1b9b-400e-9913-4244ef0113f0}, !- Schedule Type Limits Name
  ,                                       !- Interpolate to Timestep
  24,                                     !- Hour 1
  0,                                      !- Minute 1
  26;                                     !- Value Until Time 1

OS:Schedule:Ruleset,
  {243d3678-f240-43ad-a992-582b13b4dae3}, !- Handle
  Heating Sch,                            !- Name
  {e74de413-1b9b-400e-9913-4244ef0113f0}, !- Schedule Type Limits Name
  {9bc01bd6-5bfd-4983-b645-ed40f7a1bfb6}; !- Default Day Schedule Name

OS:Schedule:Day,
  {9bc01bd6-5bfd-4983-b645-ed40f7a1bfb6}, !- Handle
  Heating Sch Default,                    !- Name
  {e74de413-1b9b-400e-9913-4244ef0113f0}, !- Schedule Type Limits Name
  ,                                       !- Interpolate to Timestep
  24,                                     !- Hour 1
  0,                                      !- Minute 1
  19;                                     !- Value Until Time 1

OS:ThermostatSetpoint:DualSetpoint,
  {7e425b7e-42ea-401e-a124-dcdb4ab97ca5}, !- Handle
  Thermostat Setpoint Dual Setpoint 1,    !- Name
  {243d3678-f240-43ad-a992-582b13b4dae3}, !- Heating Setpoint Temperature Schedule Name
  {83cc34fc-84bd-465c-9e8f-794fa6468573}; !- Cooling Setpoint Temperature Schedule Name

OS:ScheduleTypeLimits,
  {e74de413-1b9b-400e-9913-4244ef0113f0}, !- Handle
  Temperature,                            !- Name
  ,                                       !- Lower Limit Value
  ,                                       !- Upper Limit Value
  Continuous,                             !- Numeric Type
  Temperature;                            !- Unit Type

OS:DefaultConstructionSet,
  {2e5ca123-e388-45ee-97f1-b6bd65eb52ce}, !- Handle
  ASHRAE_189.1-2009_ClimateZone 4-5 (mdoff)_ConstSet, !- Name
  {a59a4718-b786-40b7-82b2-4b1402541b8d}, !- Default Exterior Surface Constructions Name
  {27366fd4-5217-4e2f-bef3-0a017467dea4}, !- Default Interior Surface Constructions Name
  {daaada77-05c8-4e80-9ec1-d2eb82b325fe}, !- Default Ground Contact Surface Constructions Name
  {91af8627-46f6-4b21-8fb4-27a9c47ef1fc}, !- Default Exterior SubSurface Constructions Name
  {916d6492-d0ef-4917-b705-d1f2167b6427}, !- Default Interior SubSurface Constructions Name
  {240cd680-4fda-4344-b61f-f4bdc976ef42}, !- Interior Partition Construction Name
  ,                                       !- Space Shading Construction Name
  ,                                       !- Building Shading Construction Name
  ,                                       !- Site Shading Construction Name
  ;                                       !- Adiabatic Surface Construction Name

OS:DefaultSurfaceConstructions,
  {a59a4718-b786-40b7-82b2-4b1402541b8d}, !- Handle
  ASHRAE_189.1-2009_ClimateZone 4-5 (mdoff)_Exterior_DefSurfCons, !- Name
  {135ff427-7d0d-46b6-b50c-a492845ecb8f}, !- Floor Construction Name
  {8248598a-5d13-44b5-b299-3a5e1e7c75d0}, !- Wall Construction Name
  {6e90e4e2-38d0-4cc6-b741-c5cc8c37aad0}; !- Roof Ceiling Construction Name

OS:DefaultSurfaceConstructions,
  {27366fd4-5217-4e2f-bef3-0a017467dea4}, !- Handle
  000_Interior_DefSurfCons,               !- Name
  {18245868-945c-4023-baa4-e1a0b2d11baf}, !- Floor Construction Name
  {dc152ed2-7391-49e7-bd80-d271fb9ee4ba}, !- Wall Construction Name
  {d119b901-aa45-456b-80bb-6497dddf485b}; !- Roof Ceiling Construction Name

OS:DefaultSurfaceConstructions,
  {daaada77-05c8-4e80-9ec1-d2eb82b325fe}, !- Handle
  000_Ground_DefSurfCons,                 !- Name
  {135ff427-7d0d-46b6-b50c-a492845ecb8f}, !- Floor Construction Name
  {135ff427-7d0d-46b6-b50c-a492845ecb8f}, !- Wall Construction Name
  {135ff427-7d0d-46b6-b50c-a492845ecb8f}; !- Roof Ceiling Construction Name

OS:DefaultSubSurfaceConstructions,
  {91af8627-46f6-4b21-8fb4-27a9c47ef1fc}, !- Handle
  ASHRAE_189.1-2009_ClimateZone 4-5 (mdoff)_Exterior_DefSubCons, !- Name
  {8383bd9c-a423-42ee-b8fa-a24e25be8a86}, !- Fixed Window Construction Name
  {8383bd9c-a423-42ee-b8fa-a24e25be8a86}, !- Operable Window Construction Name
  {8b8bb60b-2ab2-4c44-ae80-92f6562eb2bc}, !- Door Construction Name
  {6774692a-23c1-444a-8b8f-89a985ce7988}, !- Glass Door Construction Name
  ,                                       !- Overhead Door Construction Name
  {6774692a-23c1-444a-8b8f-89a985ce7988}, !- Skylight Construction Name
  {2a3812c4-6aae-4212-a480-96fc8b05cc06}, !- Tubular Daylight Dome Construction Name
  {2a3812c4-6aae-4212-a480-96fc8b05cc06}; !- Tubular Daylight Diffuser Construction Name

OS:DefaultSubSurfaceConstructions,
  {916d6492-d0ef-4917-b705-d1f2167b6427}, !- Handle
  000_Interior_DefSubCons,                !- Name
  {2a3812c4-6aae-4212-a480-96fc8b05cc06}, !- Fixed Window Construction Name
  {2a3812c4-6aae-4212-a480-96fc8b05cc06}, !- Operable Window Construction Name
  {92b5d7fc-b0aa-49a6-94ea-c2b47d3288ef}, !- Door Construction Name
  {6774692a-23c1-444a-8b8f-89a985ce7988}, !- Glass Door Construction Name
  ,                                       !- Overhead Door Construction Name
  {6774692a-23c1-444a-8b8f-89a985ce7988}, !- Skylight Construction Name
  {2a3812c4-6aae-4212-a480-96fc8b05cc06}, !- Tubular Daylight Dome Construction Name
  {2a3812c4-6aae-4212-a480-96fc8b05cc06}; !- Tubular Daylight Diffuser Construction Name

OS:Construction,
  {240cd680-4fda-4344-b61f-f4bdc976ef42}, !- Handle
  000_Interior Partition,                 !- Name
  ,                                       !- Surface Rendering Name
  {9b95c11d-934d-403f-a0a8-3f91f2b76c05}; !- Layer 1

OS:Construction,
  {135ff427-7d0d-46b6-b50c-a492845ecb8f}, !- Handle
  000_ExtSlabCarpet_4in_ClimateZone 1-8,  !- Name
  ,                                       !- Surface Rendering Name
  {154a4062-0dcf-4ff7-b8c8-b63483200428}, !- Layer 1
  {dc1f5553-6a68-4f9c-8ece-0d2f856729fd}; !- Layer 2

OS:Construction,
  {8248598a-5d13-44b5-b299-3a5e1e7c75d0}, !- Handle
  ASHRAE_189.1-2009_ExtWall_SteelFrame_ClimateZone 4-8, !- Name
  ,                                       !- Surface Rendering Name
  {9bd10bf7-0480-4de3-a112-acde61eadc35}, !- Layer 1
  {9bc50170-b43d-44b4-bbff-3ba3d844fceb}, !- Layer 2
  {68a04799-70e3-41c5-b97b-e13004b79eb7}; !- Layer 3

OS:Construction,
  {6e90e4e2-38d0-4cc6-b741-c5cc8c37aad0}, !- Handle
  ASHRAE_189.1-2009_ExtRoof_IEAD_ClimateZone 2-5, !- Name
  ,                                       !- Surface Rendering Name
  {fc1ce8bb-c194-4e8d-8535-ac60f0a0caee}, !- Layer 1
  {316dd276-ca38-4149-a814-5c39f8bcc9d6}, !- Layer 2
  {8cb88bdb-1b7a-49ea-8cba-4dc561f3e5d3}; !- Layer 3

OS:Construction,
  {18245868-945c-4023-baa4-e1a0b2d11baf}, !- Handle
  000_Interior Floor,                     !- Name
  ,                                       !- Surface Rendering Name
  {1766b1f3-32ec-49cf-af6f-8bfca3d0a505}, !- Layer 1
  {5b791fdb-94cc-4225-aa1e-65fe831c9bce}, !- Layer 2
  {0007aa8b-d495-4cdb-8a8f-6361783fd8ab}; !- Layer 3

OS:Construction,
  {dc152ed2-7391-49e7-bd80-d271fb9ee4ba}, !- Handle
  000_Interior Wall,                      !- Name
  ,                                       !- Surface Rendering Name
  {535c860e-6cde-4c88-b067-9e983a699b97}, !- Layer 1
  {8ccd0cd0-350c-4f57-8499-b3893650a125}, !- Layer 2
  {535c860e-6cde-4c88-b067-9e983a699b97}; !- Layer 3

OS:Construction,
  {d119b901-aa45-456b-80bb-6497dddf485b}, !- Handle
  000_Interior Ceiling,                   !- Name
  ,                                       !- Surface Rendering Name
  {0007aa8b-d495-4cdb-8a8f-6361783fd8ab}, !- Layer 1
  {5b791fdb-94cc-4225-aa1e-65fe831c9bce}, !- Layer 2
  {1766b1f3-32ec-49cf-af6f-8bfca3d0a505}; !- Layer 3

OS:Construction,
  {8383bd9c-a423-42ee-b8fa-a24e25be8a86}, !- Handle
  ASHRAE_189.1-2009_ExtWindow_ClimateZone 4-5, !- Name
  ,                                       !- Surface Rendering Name
  {5320237a-e0b9-4801-ad18-16f586bc9c41}; !- Layer 1

OS:Construction,
  {8b8bb60b-2ab2-4c44-ae80-92f6562eb2bc}, !- Handle
  000_Exterior Door,                      !- Name
  ,                                       !- Surface Rendering Name
  {1586792c-58cb-45c2-a1d5-1b33412b62fb}, !- Layer 1
  {fb9d0336-8797-4748-ba60-eb63e6c753aa}; !- Layer 2

OS:Construction,
  {6774692a-23c1-444a-8b8f-89a985ce7988}, !- Handle
  000_Exterior Window,                    !- Name
  ,                                       !- Surface Rendering Name
  {bc885062-f0b8-484a-b52b-bf6c4fd3147a}, !- Layer 1
  {2c18e49e-3187-4c5a-bbf0-cc9fd032acd7}, !- Layer 2
  {bc885062-f0b8-484a-b52b-bf6c4fd3147a}; !- Layer 3

OS:Construction,
  {2a3812c4-6aae-4212-a480-96fc8b05cc06}, !- Handle
  000_Interior Window,                    !- Name
  ,                                       !- Surface Rendering Name
  {bc885062-f0b8-484a-b52b-bf6c4fd3147a}; !- Layer 1

OS:Construction,
  {92b5d7fc-b0aa-49a6-94ea-c2b47d3288ef}, !- Handle
  000_Interior Door,                      !- Name
  ,                                       !- Surface Rendering Name
  {9b95c11d-934d-403f-a0a8-3f91f2b76c05}; !- Layer 1

OS:Material,
  {9b95c11d-934d-403f-a0a8-3f91f2b76c05}, !- Handle
  000_G05 25mm wood,                      !- Name
  MediumSmooth,                           !- Roughness
  0.025399999999999999,                   !- Thickness {m}
  0.14999999999999999,                    !- Conductivity {W/m-K}
  608,                                    !- Density {kg/m3}
  1630;                                   !- Specific Heat {J/kg-K}

OS:Material,
  {154a4062-0dcf-4ff7-b8c8-b63483200428}, !- Handle
  MAT-CC05 4 HW CONCRETE,                 !- Name
  Rough,                                  !- Roughness
  0.1016,                                 !- Thickness {m}
  1.3109999999999999,                     !- Conductivity {W/m-K}
  2240,                                   !- Density {kg/m3}
  836.8,                                  !- Specific Heat {J/kg-K}
  0.90000000000000002,                    !- Thermal Absorptance
  0.69999999999999996,                    !- Solar Absorptance
  0.69999999999999996;                    !- Visible Absorptance

OS:Material:NoMass,
  {dc1f5553-6a68-4f9c-8ece-0d2f856729fd}, !- Handle
  CP02 CARPET PAD,                        !- Name
  VeryRough,                              !- Roughness
  0.2165,                                 !- Thermal Resistance {m2-K/W}
  0.90000000000000002,                    !- Thermal Absorptance
  0.69999999999999996,                    !- Solar Absorptance
  0.80000000000000004;                    !- Visible Absorptance

OS:Material:NoMass,
  {9bd10bf7-0480-4de3-a112-acde61eadc35}, !- Handle
  MAT-SHEATH,                             !- Name
  Rough,                                  !- Roughness
  0.36259999999999998,                    !- Thermal Resistance {m2-K/W}
  0.90000000000000002,                    !- Thermal Absorptance
  0.69999999999999996,                    !- Solar Absorptance
  0.69999999999999996;                    !- Visible Absorptance

OS:Material,
  {9bc50170-b43d-44b4-bbff-3ba3d844fceb}, !- Handle
  Wall Insulation [39],                   !- Name
  MediumRough,                            !- Roughness
  0.11840000000000001,                    !- Thickness {m}
  0.044999999999999998,                   !- Conductivity {W/m-K}
  265,                                    !- Density {kg/m3}
  836.8,                                  !- Specific Heat {J/kg-K}
  0.90000000000000002,                    !- Thermal Absorptance
  0.69999999999999996,                    !- Solar Absorptance
  0.69999999999999996;                    !- Visible Absorptance

OS:Material,
  {68a04799-70e3-41c5-b97b-e13004b79eb7}, !- Handle
  1/2IN Gypsum,                           !- Name
  Smooth,                                 !- Roughness
  0.012699999999999999,                   !- Thickness {m}
  0.16,                                   !- Conductivity {W/m-K}
  784.89999999999998,                     !- Density {kg/m3}
  830,                                    !- Specific Heat {J/kg-K}
  0.90000000000000002,                    !- Thermal Absorptance
  0.92000000000000004,                    !- Solar Absorptance
  0.92000000000000004;                    !- Visible Absorptance

OS:Material,
  {fc1ce8bb-c194-4e8d-8535-ac60f0a0caee}, !- Handle
  Roof Membrane,                          !- Name
  VeryRough,                              !- Roughness
  0.0094999999999999998,                  !- Thickness {m}
  0.16,                                   !- Conductivity {W/m-K}
  1121.29,                                !- Density {kg/m3}
  1460,                                   !- Specific Heat {J/kg-K}
  0.90000000000000002,                    !- Thermal Absorptance
  0.69999999999999996,                    !- Solar Absorptance
  0.69999999999999996;                    !- Visible Absorptance

OS:Material,
  {316dd276-ca38-4149-a814-5c39f8bcc9d6}, !- Handle
  Roof Insulation [21],                   !- Name
  MediumRough,                            !- Roughness
  0.21049999999999999,                    !- Thickness {m}
  0.049000000000000002,                   !- Conductivity {W/m-K}
  265,                                    !- Density {kg/m3}
  836.8,                                  !- Specific Heat {J/kg-K}
  0.90000000000000002,                    !- Thermal Absorptance
  0.69999999999999996,                    !- Solar Absorptance
  0.69999999999999996;                    !- Visible Absorptance

OS:Material,
  {8cb88bdb-1b7a-49ea-8cba-4dc561f3e5d3}, !- Handle
  Metal Decking,                          !- Name
  MediumSmooth,                           !- Roughness
  0.0015,                                 !- Thickness {m}
  45.006,                                 !- Conductivity {W/m-K}
  7680,                                   !- Density {kg/m3}
  418.4,                                  !- Specific Heat {J/kg-K}
  0.90000000000000002,                    !- Thermal Absorptance
  0.69999999999999996,                    !- Solar Absorptance
  0.29999999999999999;                    !- Visible Absorptance

OS:Material,
  {1766b1f3-32ec-49cf-af6f-8bfca3d0a505}, !- Handle
  000_F16 Acoustic tile,                  !- Name