
OS:Version,
  {f8b39f3c-6e20-4e51-a8c1-ab6b20ef6ebc}, !- Handle
  3.5.0;                                  !- Version Identifier

OS:BuildingStory,
  {d9453bef-d937-43bc-9445-61dec4ef9c54}, !- Handle
  Story 1,                                !- Name
  0,                                      !- Nominal Z Coordinate {m}
  4,                                      !- Nominal Floor to Floor Height {m}
  ,                                       !- Default Construction Set Name
  ,                                       !- Default Schedule Set Name
  ;                                       !- Group Rendering Name

OS:Space,
  {96dae161-04a6-4f44-b999-b162493fc87b}, !- Handle
  Story 1 Core Space,                     !- Name
  ,                                       !- Space Type Name
  ,                                       !- Default Construction Set Name
  ,                                       !- Default Schedule Set Name
  -0,                                     !- Direction of Relative North {deg}
  0,                                      !- X Origin {m}
  0,                                      !- Y Origin {m}
  0,                                      !- Z Origin {m}
  {d9453bef-d937-43bc-9445-61dec4ef9c54}, !- Building Story Name
  {2b2e8f8b-0bd0-4951-a709-4f57a452c9a8}; !- Thermal Zone Name

OS:Surface,
  {dcbb9a6f-8004-4d4d-904d-629766aa940c}, !- Handle
  Story 1 Core Space Exterior Ground Floor, !- Name
  Floor,                                  !- Surface Type
  ,                                       !- Construction Name
  {96dae161-04a6-4f44-b999-b162493fc87b}, !- Space Name
  Ground,                                 !- Outside Boundary Condition
  ,                                       !- Outside Boundary Condition Object
  NoSun,                                  !- Sun Exposure
  NoWind,                                 !- Wind Exposure
  ,                                       !- View Factor to Ground
  ,                                       !- Number of Vertices
  0, 0, 0,                                !- X,Y,Z Vertex 1 {m}
  0, 50, 0,                               !- X,Y,Z Vertex 2 {m}
  100, 50, 0,                             !- X,Y,Z Vertex 3 {m}
  100, 0, 0;                              !- X,Y,Z Vertex 4 {m}

OS:Surface,
  {8984682f-2e1b-4554-8e71-e14dd3bc4152}, !- Handle
  Story 1 Core Space Exterior Wall 3,     !- Name
  Wall,                                   !- Surface Type
  ,                                       !- Construction Name
  {96dae161-04a6-4f44-b999-b162493fc87b}, !- Space Name
  Outdoors,                               !- Outside Boundary Condition
  ,                                       !- Outside Boundary Condition Object
  SunExposed,                             !- Sun Exposure
  WindExposed,                            !- Wind Exposure
  ,                                       !- View Factor to Ground
  ,                                       !- Number of Vertices
  0, 50, 4,                               !- X,Y,Z Vertex 1 {m}
  0, 50, 0,                               !- X,Y,Z Vertex 2 {m}
  0, 0, 0,                                !- X,Y,Z Vertex 3 {m}
  0, 0, 4;                                !- X,Y,Z Vertex 4 {m}

OS:Surface,
  {931703e5-88c1-4c53-8970-3caebc30c528}, !- Handle
  Story 1 Core Space Exterior Wall 2,     !- Name
  Wall,                                   !- Surface Type
  ,                                       !- Construction Name
  {96dae161-04a6-4f44-b999-b162493fc87b}, !- Space Name
  Outdoors,                               !- Outside Boundary Condition
  ,                                       !- Outside Boundary Condition Object
  SunExposed,                             !- Sun Exposure
  WindExposed,                            !- Wind Exposure
  ,                                       !- View Factor to Ground
  ,                                       !- Number of Vertices
  100, 50, 4,                             !- X,Y,Z Vertex 1 {m}
  100, 50, 0,                             !- X,Y,Z Vertex 2 {m}
  0, 50, 0,                               !- X,Y,Z Vertex 3 {m}
  0, 50, 4;                               !- X,Y,Z Vertex 4 {m}

OS:Surface,
  {c9ec2cbf-b0ca-4226-8f16-9d5d1d85d152}, !- Handle
  Story 1 Core Space Exterior Wall 1,     !- Name
  Wall,                                   !- Surface Type
  ,                                       !- Construction Name
  {96dae161-04a6-4f44-b999-b162493fc87b}, !- Space Name
  Outdoors,                               !- Outside Boundary Condition
  ,                                       !- Outside Boundary Condition Object
  SunExposed,                             !- Sun Exposure
  WindExposed,                            !- Wind Exposure
  ,                                       !- View Factor to Ground
  ,                                       !- Number of Vertices
  100, 0, 4,                              !- X,Y,Z Vertex 1 {m}
  100, 0, 0,                              !- X,Y,Z Vertex 2 {m}
  100, 50, 0,                             !- X,Y,Z Vertex 3 {m}
  100, 50, 4;                             !- X,Y,Z Vertex 4 {m}

OS:Surface,
  {c5ae052e-272f-4141-bc59-1b24e26ace54}, !- Handle
  Story 1 Core Space Exterior Wall,       !- Name
  Wall,                                   !- Surface Type
  ,                                       !- Construction Name
  {96dae161-04a6-4f44-b999-b162493fc87b}, !- Space Name
  Outdoors,                               !- Outside Boundary Condition
  ,                                       !- Outside Boundary Condition Object
  SunExposed,                             !- Sun Exposure
  WindExposed,                            !- Wind Exposure
  ,                                       !- View Factor to Ground
  ,                                       !- Number of Vertices
  0, 0, 4,                                !- X,Y,Z Vertex 1 {m}
  0, 0, 0,                                !- X,Y,Z Vertex 2 {m}
  100, 0, 0,                              !- X,Y,Z Vertex 3 {m}
  100, 0, 4;                              !- X,Y,Z Vertex 4 {m}

OS:Surface,
  {cf88219c-4dac-44a6-aaa8-f0f8c016ca1e}, !- Handle
  Story 1 Core Space Exterior Roof,       !- Name
  RoofCeiling,                            !- Surface Type
  ,                                       !- Construction Name
  {96dae161-04a6-4f44-b999-b162493fc87b}, !- Space Name
  Outdoors,                               !- Outside Boundary Condition
  ,                                       !- Outside Boundary Condition Object
  SunExposed,                             !- Sun Exposure
  WindExposed,                            !- Wind Exposure
  ,                                       !- View Factor to Ground
  ,                                       !- Number of Vertices
  100, 0, 4,                              !- X,Y,Z Vertex 1 {m}
  100, 50, 4,                             !- X,Y,Z Vertex 2 {m}
  0, 50, 4,                               !- X,Y,Z Vertex 3 {m}
  0, 0, 4;                                !- X,Y,Z Vertex 4 {m}

OS:ThermalZone,
  {2b2e8f8b-0bd0-4951-a709-4f57a452c9a8}, !- Handle
  Story 1 Core Thermal Zone,              !- Name
  ,                                       !- Multiplier
  ,                                       !- Ceiling Height {m}
  ,                                       !- Volume {m3}
  ,                                       !- Floor Area {m2}
  ,                                       !- Zone Inside Convection Algorithm
  ,                                       !- Zone Outside Convection Algorithm
  ,                                       !- Zone Conditioning Equipment List Name
  {7122e855-4b5d-4dee-b77e-14cd7dbc537f}, !- Zone Air Inlet Port List
  {9ee590e0-b074-4616-8ec8-67dd3fbb918d}, !- Zone Air Exhaust Port List
  {21a8f3d6-1c39-4954-8083-49f2454f7a79}, !- Zone Air Node Name
  {c1d58f50-72db-4188-8e74-c54f8a16b8e5}, !- Zone Return Air Port List
  ,                                       !- Primary Daylighting Control Name
  ,                                       !- Fraction of Zone Controlled by Primary Daylighting Control
  ,                                       !- Secondary Daylighting Control Name
  ,                                       !- Fraction of Zone Controlled by Secondary Daylighting Control
  ,                                       !- Illuminance Map Name
  ,                                       !- Group Rendering Name
  {6e37fd69-b91e-41b1-aebd-2678cf66fa6c}, !- Thermostat Name
  No;                                     !- Use Ideal Air Loads

OS:Node,
  {66518f61-8393-4ef6-b6e6-7b256972b84d}, !- Handle
  Node 1,                                 !- Name
  {21a8f3d6-1c39-4954-8083-49f2454f7a79}, !- Inlet Port
  ;                                       !- Outlet Port

OS:Connection,
  {21a8f3d6-1c39-4954-8083-49f2454f7a79}, !- Handle
  {2b2e8f8b-0bd0-4951-a709-4f57a452c9a8}, !- Source Object
  11,                                     !- Outlet Port
  {66518f61-8393-4ef6-b6e6-7b256972b84d}, !- Target Object
  2;                                      !- Inlet Port

OS:PortList,
  {7122e855-4b5d-4dee-b77e-14cd7dbc537f}, !- Handle
  {2b2e8f8b-0bd0-4951-a709-4f57a452c9a8}, !- HVAC Component
  {120f6379-9061-403d-a78e-a20239dca37e}; !- Port 1

OS:PortList,
  {9ee590e0-b074-4616-8ec8-67dd3fbb918d}, !- Handle
  {2b2e8f8b-0bd0-4951-a709-4f57a452c9a8}, !- HVAC Component
  {5cbcf12f-af2d-43c1-81b9-c4e9971ecd55}; !- Port 1

OS:PortList,
  {c1d58f50-72db-4188-8e74-c54f8a16b8e5}, !- Handle
  {2b2e8f8b-0bd0-4951-a709-4f57a452c9a8}; !- HVAC Component

OS:Sizing:Zone,
  {9a246115-f6ab-486d-9bf1-578db5b3e566}, !- Handle
  {2b2e8f8b-0bd0-4951-a709-4f57a452c9a8}, !- Zone or ZoneList Name
  SupplyAirTemperature,                   !- Zone Cooling Design Supply Air Temperature Input Method
  14,                                     !- Zone Cooling Design Supply Air Temperature {C}
  11.11,                                  !- Zone Cooling Design Supply Air Temperature Difference {deltaC}
  SupplyAirTemperature,                   !- Zone Heating Design Supply Air Temperature Input Method
  40,                                     !- Zone Heating Design Supply Air Temperature {C}
  11.11,                                  !- Zone Heating Design Supply Air Temperature Difference {deltaC}
  0.0085,                                 !- Zone Cooling Design Supply Air Humidity Ratio {kg-H2O/kg-air}
  0.008,                                  !- Zone Heating Design Supply Air Humidity Ratio {kg-H2O/kg-air}
  ,                                       !- Zone Heating Sizing Factor
  ,                                       !- Zone Cooling Sizing Factor
  DesignDay,                              !- Cooling Design Air Flow Method
  ,                                       !- Cooling Design Air Flow Rate {m3/s}
  ,                                       !- Cooling Minimum Air Flow per Zone Floor Area {m3/s-m2}
  ,                                       !- Cooling Minimum Air Flow {m3/s}
  ,                                       !- Cooling Minimum Air Flow Fraction
  DesignDay,                              !- Heating Design Air Flow Method
  ,                                       !- Heating Design Air Flow Rate {m3/s}
  ,                                       !- Heating Maximum Air Flow per Zone Floor Area {m3/s-m2}
  ,                                       !- Heating Maximum Air Flow {m3/s}
  ,                                       !- Heating Maximum Air Flow Fraction
  No,                                     !- Account for Dedicated Outdoor Air System
  NeutralSupplyAir,                       !- Dedicated Outdoor Air System Control Strategy
  autosize,                               !- Dedicated Outdoor Air Low Setpoint Temperature for Design {C}
  autosize,                               !- Dedicated Outdoor Air High Setpoint Temperature for Design {C}
  Sensible Load Only No Latent Load,      !- Zone Load Sizing Method
  HumidityRatioDifference,                !- Zone Latent Cooling Design Supply Air Humidity Ratio Input Method
  ,                                       !- Zone Dehumidification Design Supply Air Humidity Ratio {kgWater/kgDryAir}
  0.005,                                  !- Zone Cooling Design Supply Air Humidity Ratio Difference {kgWater/kgDryAir}
  HumidityRatioDifference,                !- Zone Latent Heating Design Supply Air Humidity Ratio Input Method
  ,                                       !- Zone Humidification Design Supply Air Humidity Ratio {kgWater/kgDryAir}
  0.005;                                  !- Zone Humidification Design Supply Air Humidity Ratio Difference {kgWater/kgDryAir}

OS:ZoneHVAC:EquipmentList,
  {75d6a40d-3939-45e6-88a3-0e488763820f}, !- Handle
  Zone HVAC Equipment List 1,             !- Name
  {2b2e8f8b-0bd0-4951-a709-4f57a452c9a8}, !- Thermal Zone
  ,                                       !- Load Distribution Scheme
  {1a42cd80-75cc-4b45-b897-3f5980ed6238}, !- Zone Equipment 1
  1,                                      !- Zone Equipment Cooling Sequence 1
  1,                                      !- Zone Equipment Heating or No-Load Sequence 1
  ,                                       !- Zone Equipment Sequential Cooling Fraction Schedule Name 1
  ;                                       !- Zone Equipment Sequential Heating Fraction Schedule Name 1

OS:SubSurface,
  {cdf70036-5835-4e40-91fd-056129868956}, !- Handle
  Story 1 Core Space Exterior Wall Window, !- Name
  FixedWindow,                            !- Sub Surface Type
  ,                                       !- Construction Name
  {c5ae052e-272f-4141-bc59-1b24e26ace54}, !- Surface Name
  ,                                       !- Outside Boundary Condition Object
  ,                                       !- View Factor to Ground
  ,                                       !- Frame and Divider Name
  ,                                       !- Multiplier
  ,                                       !- Number of Vertices
  0.0254, 0, 2.60081321311226,            !- X,Y,Z Vertex 1 {m}
  0.0254, 0, 1,                           !- X,Y,Z Vertex 2 {m}
  99.9746, 0, 1,                          !- X,Y,Z Vertex 3 {m}
  99.9746, 0, 2.60081321311226;           !- X,Y,Z Vertex 4 {m}

OS:SubSurface,
  {4c20717e-c057-4e18-8bbe-b99c5397a9bc}, !- Handle
  Story 1 Core Space Exterior Wall 2 Window, !- Name
  FixedWindow,                            !- Sub Surface Type
  ,                                       !- Construction Name
  {931703e5-88c1-4c53-8970-3caebc30c528}, !- Surface Name
  ,                                       !- Outside Boundary Condition Object
  ,                                       !- View Factor to Ground
  ,                                       !- Frame and Divider Name
  ,                                       !- Multiplier
  ,                                       !- Number of Vertices
  99.9746, 50, 2.60081321311226,          !- X,Y,Z Vertex 1 {m}
  99.9746, 50, 1,                         !- X,Y,Z Vertex 2 {m}
  0.0253999999999905, 50, 1,              !- X,Y,Z Vertex 3 {m}
  0.0253999999999905, 50, 2.60081321311226; !- X,Y,Z Vertex 4 {m}

OS:SubSurface,
  {f20fa76e-1be3-40db-8da6-b2fa613dfbe8}, !- Handle
  Story 1 Core Space Exterior Wall 3 Window, !- Name
  FixedWindow,                            !- Sub Surface Type
  ,                                       !- Construction Name
  {8984682f-2e1b-4554-8e71-e14dd3bc4152}, !- Surface Name
  ,                                       !- Outside Boundary Condition Object
  ,                                       !- View Factor to Ground
  ,                                       !- Frame and Divider Name
  ,                                       !- Multiplier
  ,                                       !- Number of Vertices
  0, 49.9746, 2.60162725328934,           !- X,Y,Z Vertex 1 {m}
  0, 49.9746, 1,                          !- X,Y,Z Vertex 2 {m}
  0, 0.0254000000000048, 1,               !- X,Y,Z Vertex 3 {m}
  0, 0.0254000000000048, 2.60162725328934; !- X,Y,Z Vertex 4 {m}

OS:SubSurface,
  {69b02242-92ff-4604-8b13-97eb78af939d}, !- Handle
  Story 1 Core Space Exterior Wall 1 Window, !- Name
  FixedWindow,                            !- Sub Surface Type
  ,                                       !- Construction Name
  {c9ec2cbf-b0ca-4226-8f16-9d5d1d85d152}, !- Surface Name
  ,                                       !- Outside Boundary Condition Object
  ,                                       !- View Factor to Ground
  ,                                       !- Frame and Divider Name
  ,                                       !- Multiplier
  ,                                       !- Number of Vertices
  100, 0.0254, 2.60162725328934,          !- X,Y,Z Vertex 1 {m}
  100, 0.0254, 1,                         !- X,Y,Z Vertex 2 {m}
  100, 49.9746, 1,                        !- X,Y,Z Vertex 3 {m}
  100, 49.9746, 2.60162725328934;         !- X,Y,Z Vertex 4 {m}

OS:Schedule:Ruleset,
  {bfe0c29a-64b7-41cd-bf6e-7e73a33c9fee}, !- Handle
  Cooling Sch,                            !- Name
  {eb488b2b-8ae0-4c50-b85f-27ceb72ca304}, !- Schedule Type Limits Name
  {7b67bbe5-be58-4910-9ca1-f1742de25cdd}; !- Default Day Schedule Name

OS:Schedule:Day,
  {7b67bbe5-be58-4910-9ca1-f1742de25cdd}, !- Handle
  Cooling Sch Default,                    !- Name
  {eb488b2b-8ae0-4c50-b85f-27ceb72ca304}, !- Schedule Type Limits Name
  ,                                       !- Interpolate to Timestep
  24,                                     !- Hour 1
  0,                                      !- Minute 1
  26;                                     !- Value Until Time 1

OS:Schedule:Ruleset,
  {5cea7ac6-df9f-4eb4-8d22-7a5cb0c196f8}, !- Handle
  Heating Sch,                            !- Name
  {eb488b2b-8ae0-4c50-b85f-27ceb72ca304}, !- Schedule Type Limits Name
  {664f0413-2b73-4cef-a45c-71584780c319}; !- Default Day Schedule Name

OS:Schedule:Day,
  {664f0413-2b73-4cef-a45c-71584780c319}, !- Handle
  Heating Sch Default,                    !- Name
  {eb488b2b-8ae0-4c50-b85f-27ceb72ca304}, !- Schedule Type Limits Name
  ,                                       !- Interpolate to Timestep
  24,                                     !- Hour 1
  0,                                      !- Minute 1
  19;                                     !- Value Until Time 1

OS:ThermostatSetpoint:DualSetpoint,
  {6e37fd69-b91e-41b1-aebd-2678cf66fa6c}, !- Handle
  Thermostat Setpoint Dual Setpoint 1,    !- Name
  {5cea7ac6-df9f-4eb4-8d22-7a5cb0c196f8}, !- Heating Setpoint Temperature Schedule Name
  {bfe0c29a-64b7-41cd-bf6e-7e73a33c9fee}; !- Cooling Setpoint Temperature Schedule Name

OS:ScheduleTypeLimits,
  {eb488b2b-8ae0-4c50-b85f-27ceb72ca304}, !- Handle
  Temperature,                            !- Name
  ,                                       !- Lower Limit Value
  ,                                       !- Upper Limit Value
  Continuous,                             !- Numeric Type
  Temperature;                            !- Unit Type

OS:DefaultConstructionSet,
  {3cd02fc8-8a8c-4594-8296-c0972f001a2b}, !- Handle
  ASHRAE_189.1-2009_ClimateZone 4-5 (mdoff)_ConstSet, !- Name
  {f65a2454-4cde-413e-81d6-bfc5099542c3}, !- Default Exterior Surface Constructions Name
  {c6733106-71ac-4e97-a32d-984c25aa5698}, !- Default Interior Surface Constructions Name
  {396628ff-625a-4eb5-be7e-ff0614224c91}, !- Default Ground Contact Surface Constructions Name
  {306114fd-5177-437d-9913-b239e98be1b1}, !- Default Exterior SubSurface Constructions Name
  {055c5e22-a9f1-4c0f-a19d-33448cb5a774}, !- Default Interior SubSurface Constructions Name
  {3a05484a-2586-4f96-97af-aca26501b4c7}, !- Interior Partition Construction Name
  ,                                       !- Space Shading Construction Name
  ,                                       !- Building Shading Construction Name
  ,                                       !- Site Shading Construction Name
  ;                                       !- Adiabatic Surface Construction Name

OS:DefaultSurfaceConstructions,
  {f65a2454-4cde-413e-81d6-bfc5099542c3}, !- Handle
  ASHRAE_189.1-2009_ClimateZone 4-5 (mdoff)_Exterior_DefSurfCons, !- Name
  {7a70f609-af86-452b-8d95-197b8a8fc367}, !- Floor Construction Name
  {b0d3c2db-8752-4aa6-887f-8dbf9db05df5}, !- Wall Construction Name
  {5cd880f0-45e0-4708-9d60-fc0f898ae393}; !- Roof Ceiling Construction Name

OS:DefaultSurfaceConstructions,
  {c6733106-71ac-4e97-a32d-984c25aa5698}, !- Handle
  000_Interior_DefSurfCons,               !- Name
  {6e944a20-f442-4320-8b0a-7dfc8232f496}, !- Floor Construction Name
  {7fe21c4c-b89e-4eec-b6e8-bffedb554e69}, !- Wall Construction Name
  {4c105439-e424-4bb5-8975-cd555a8496a2}; !- Roof Ceiling Construction Name

OS:DefaultSurfaceConstructions,
  {396628ff-625a-4eb5-be7e-ff0614224c91}, !- Handle
  000_Ground_DefSurfCons,                 !- Name
  {7a70f609-af86-452b-8d95-197b8a8fc367}, !- Floor Construction Name
  {7a70f609-af86-452b-8d95-197b8a8fc367}, !- Wall Construction Name
  {7a70f609-af86-452b-8d95-197b8a8fc367}; !- Roof Ceiling Construction Name

OS:DefaultSubSurfaceConstructions,
  {306114fd-5177-437d-9913-b239e98be1b1}, !- Handle
  ASHRAE_189.1-2009_ClimateZone 4-5 (mdoff)_Exterior_DefSubCons, !- Name
  {af2abc00-6900-437d-9747-66143aceee48}, !- Fixed Window Construction Name
  {af2abc00-6900-437d-9747-66143aceee48}, !- Operable Window Construction Name
  {8bdd63fb-9728-4a2d-b713-275fcb30779d}, !- Door Construction Name
  {2fa4a43d-f1c8-463c-bc69-1ade236bd92d}, !- Glass Door Construction Name
  ,                                       !- Overhead Door Construction Name
  {2fa4a43d-f1c8-463c-bc69-1ade236bd92d}, !- Skylight Construction Name
  {2e50df6d-2229-4277-90db-4eca81e1a3e9}, !- Tubular Daylight Dome Construction Name
  {2e50df6d-2229-4277-90db-4eca81e1a3e9}; !- Tubular Daylight Diffuser Construction Name

OS:DefaultSubSurfaceConstructions,
  {055c5e22-a9f1-4c0f-a19d-33448cb5a774}, !- Handle
  000_Interior_DefSubCons,                !- Name
  {2e50df6d-2229-4277-90db-4eca81e1a3e9}, !- Fixed Window Construction Name
  {2e50df6d-2229-4277-90db-4eca81e1a3e9}, !- Operable Window Construction Name
  {8bf53599-bd7b-4f51-a20d-d7efab509474}, !- Door Construction Name
  {2fa4a43d-f1c8-463c-bc69-1ade236bd92d}, !- Glass Door Construction Name
  ,                                       !- Overhead Door Construction Name
  {2fa4a43d-f1c8-463c-bc69-1ade236bd92d}, !- Skylight Construction Name
  {2e50df6d-2229-4277-90db-4eca81e1a3e9}, !- Tubular Daylight Dome Construction Name
  {2e50df6d-2229-4277-90db-4eca81e1a3e9}; !- Tubular Daylight Diffuser Construction Name

OS:Construction,
  {3a05484a-2586-4f96-97af-aca26501b4c7}, !- Handle
  000_Interior Partition,                 !- Name
  ,                                       !- Surface Rendering Name
  {e93b6c8f-6169-4952-8106-faed9598763f}; !- Layer 1

OS:Construction,
  {7a70f609-af86-452b-8d95-197b8a8fc367}, !- Handle
  000_ExtSlabCarpet_4in_ClimateZone 1-8,  !- Name
  ,                                       !- Surface Rendering Name
  {d1c927d1-cc74-4daa-9d58-bd8866c9bf7c}, !- Layer 1
  {e68289d8-97e9-4d4c-aaa4-23b80ac9caa8}; !- Layer 2

OS:Construction,
  {b0d3c2db-8752-4aa6-887f-8dbf9db05df5}, !- Handle
  ASHRAE_189.1-2009_ExtWall_SteelFrame_ClimateZone 4-8, !- Name
  ,                                       !- Surface Rendering Name
  {4e3ce6d0-b8b0-4a3c-b56f-8321f6ea0ec1}, !- Layer 1
  {1fe9c5f9-180a-4385-a673-a77aa73083bc}, !- Layer 2
  {c1733a53-50fa-4980-897c-db02deb3822f}; !- Layer 3

OS:Construction,
  {5cd880f0-45e0-4708-9d60-fc0f898ae393}, !- Handle
  ASHRAE_189.1-2009_ExtRoof_IEAD_ClimateZone 2-5, !- Name
  ,                                       !- Surface Rendering Name
  {1a19af19-adfa-499b-903d-f5455ba781d2}, !- Layer 1
  {04185305-3364-4554-85aa-9101e3b33936}, !- Layer 2
  {faaee2a5-2925-4809-ba84-0e79a96caab2}; !- Layer 3

OS:Construction,
  {6e944a20-f442-4320-8b0a-7dfc8232f496}, !- Handle
  000_Interior Floor,                     !- Name
  ,                                       !- Surface Rendering Name
  {75272ce0-e1c1-4109-be00-92555240136b}, !- Layer 1
  {bd78c3a4-80b4-42fb-9808-bae5e666f878}, !- Layer 2
  {55d8d470-f048-40a7-982c-a938b44122c3}; !- Layer 3

OS:Construction,
  {7fe21c4c-b89e-4eec-b6e8-bffedb554e69}, !- Handle
  000_Interior Wall,                      !- Name
  ,                                       !- Surface Rendering Name
  {35042b89-880e-4525-8838-fe47318bea86}, !- Layer 1
  {c0ddf866-ff1c-4940-95bf-a6b13d069f21}, !- Layer 2
  {35042b89-880e-4525-8838-fe47318bea86}; !- Layer 3

OS:Construction,
  {4c105439-e424-4bb5-8975-cd555a8496a2}, !- Handle
  000_Interior Ceiling,                   !- Name
  ,                                       !- Surface Rendering Name
  {55d8d470-f048-40a7-982c-a938b44122c3}, !- Layer 1
  {bd78c3a4-80b4-42fb-9808-bae5e666f878}, !- Layer 2
  {75272ce0-e1c1-4109-be00-92555240136b}; !- Layer 3

OS:Construction,
  {af2abc00-6900-437d-9747-66143aceee48}, !- Handle
  ASHRAE_189.1-2009_ExtWindow_ClimateZone 4-5, !- Name
  ,                                       !- Surface Rendering Name
  {3005a76a-1013-442c-833f-3fdb70f2c868}; !- Layer 1

OS:Construction,
  {8bdd63fb-9728-4a2d-b713-275fcb30779d}, !- Handle
  000_Exterior Door,                      !- Name
  ,                                       !- Surface Rendering Name
  {95de7687-9f7f-472f-99cf-4d6ed7750183}, !- Layer 1
  {7c05017d-77f8-4a62-b3d4-65c78f64eec6}; !- Layer 2

OS:Construction,
  {2fa4a43d-f1c8-463c-bc69-1ade236bd92d}, !- Handle
  000_Exterior Window,                    !- Name
  ,                                       !- Surface Rendering Name
  {bd54dc08-de09-41f5-8fc5-dc19e57ccf3b}, !- Layer 1
  {e1fc9839-984a-4574-9c24-51d84bd2e0d4}, !- Layer 2
  {bd54dc08-de09-41f5-8fc5-dc19e57ccf3b}; !- Layer 3

OS:Construction,
  {2e50df6d-2229-4277-90db-4eca81e1a3e9}, !- Handle
  000_Interior Window,                    !- Name
  ,                                       !- Surface Rendering Name
  {bd54dc08-de09-41f5-8fc5-dc19e57ccf3b}; !- Layer 1

OS:Construction,
  {8bf53599-bd7b-4f51-a20d-d7efab509474}, !- Handle
  000_Interior Door,                      !- Name
  ,                                       !- Surface Rendering Name
  {e93b6c8f-6169-4952-8106-faed9598763f}; !- Layer 1

OS:Material,
  {e93b6c8f-6169-4952-8106-faed9598763f}, !- Handle
  000_G05 25mm wood,                      !- Name
  MediumSmooth,                           !- Roughness
  0.025399999999999999,                   !- Thickness {m}
  0.14999999999999999,                    !- Conductivity {W/m-K}
  608,                                    !- Density {kg/m3}
  1630;                                   !- Specific Heat {J/kg-K}

OS:Material,
  {d1c927d1-cc74-4daa-9d58-bd8866c9bf7c}, !- Handle
  MAT-CC05 4 HW CONCRETE,                 !- Name
  Rough,                                  !- Roughness
  0.1016,                                 !- Thickness {m}
  1.3109999999999999,                     !- Conductivity {W/m-K}
  2240,                                   !- Density {kg/m3}
  836.8,                                  !- Specific Heat {J/kg-K}
  0.90000000000000002,                    !- Thermal Absorptance
  0.69999999999999996,                    !- Solar Absorptance
  0.69999999999999996;                    !- Visible Absorptance

OS:Material:NoMass,
  {e68289d8-97e9-4d4c-aaa4-23b80ac9caa8}, !- Handle
  CP02 CARPET PAD,                        !- Name
  VeryRough,                              !- Roughness
  0.2165,                                 !- Thermal Resistance {m2-K/W}
  0.90000000000000002,                    !- Thermal Absorptance
  0.69999999999999996,                    !- Solar Absorptance
  0.80000000000000004;                    !- Visible Absorptance

OS:Material:NoMass,
  {4e3ce6d0-b8b0-4a3c-b56f-8321f6ea0ec1}, !- Handle
  MAT-SHEATH,                             !- Name
  Rough,                                  !- Roughness
  0.36259999999999998,                    !- Thermal Resistance {m2-K/W}
  0.90000000000000002,                    !- Thermal Absorptance
  0.69999999999999996,                    !- Solar Absorptance
  0.69999999999999996;                    !- Visible Absorptance

OS:Material,
  {1fe9c5f9-180a-4385-a673-a77aa73083bc}, !- Handle
  Wall Insulation [39],                   !- Name
  MediumRough,                            !- Roughness
  0.11840000000000001,                    !- Thickness {m}
  0.044999999999999998,                   !- Conductivity {W/m-K}
  265,                                    !- Density {kg/m3}
  836.8,                                  !- Specific Heat {J/kg-K}
  0.90000000000000002,                    !- Thermal Absorptance
  0.69999999999999996,                    !- Solar Absorptance
  0.69999999999999996;                    !- Visible Absorptance

OS:Material,
  {c1733a53-50fa-4980-897c-db02deb3822f}, !- Handle
  1/2IN Gypsum,                           !- Name
  Smooth,                                 !- Roughness
  0.012699999999999999,                   !- Thickness {m}
  0.16,                                   !- Conductivity {W/m-K}
  784.89999999999998,                     !- Density {kg/m3}
  830,                                    !- Specific Heat {J/kg-K}
  0.90000000000000002,                    !- Thermal Absorptance
  0.92000000000000004,                    !- Solar Absorptance
  0.92000000000000004;                    !- Visible Absorptance

OS:Material,
  {1a19af19-adfa-499b-903d-f5455ba781d2}, !- Handle
  Roof Membrane,                          !- Name
  VeryRough,                              !- Roughness
  0.0094999999999999998,                  !- Thickness {m}
  0.16,                                   !- Conductivity {W/m-K}
  1121.29,                                !- Density {kg/m3}
  1460,                                   !- Specific Heat {J/kg-K}
  0.90000000000000002,                    !- Thermal Absorptance
  0.69999999999999996,                    !- Solar Absorptance
  0.69999999999999996;                    !- Visible Absorptance

OS:Material,