
OS:Version,
  {90d67c26-79a3-41a1-a964-3cb158ccef6f}, !- Handle
  1.10.1;                                 !- Version Identifier

OS:BuildingStory,
  {50e8f40e-83c2-47ac-b598-6b4c4ef7f29d}, !- Handle
  Story 1,                                !- Name
  0,                                      !- Nominal Z Coordinate {m}
  4,                                      !- Nominal Floor to Floor Height {m}
  ,                                       !- Default Construction Set Name
  ,                                       !- Default Schedule Set Name
  ;                                       !- Group Rendering Name

OS:Space,
  {7fad63eb-ecfd-4c26-9828-9deb76622455}, !- Handle
  Story 1 West Perimeter Space,           !- Name
  ,                                       !- Space Type Name
  ,                                       !- Default Construction Set Name
  ,                                       !- Default Schedule Set Name
  -0,                                     !- Direction of Relative North {deg}
  0,                                      !- X Origin {m}
  0,                                      !- Y Origin {m}
  0,                                      !- Z Origin {m}
  {50e8f40e-83c2-47ac-b598-6b4c4ef7f29d}, !- Building Story Name
  {9159c33f-f871-4906-adf7-2f6f0bd1ca38}; !- Thermal Zone Name

OS:Surface,
  {a370a917-ce00-42ae-9aaa-a8bd88ed022c}, !- Handle
  Surface 1,                              !- Name
  Floor,                                  !- Surface Type
  {db273564-a0de-4979-bd14-462e054691ec}, !- Construction Name
  {7fad63eb-ecfd-4c26-9828-9deb76622455}, !- Space Name
  OtherSideCoefficients,                  !- Outside Boundary Condition
  {ef724a03-6a38-48db-9f70-41589f291f1b}, !- Outside Boundary Condition Object
  NoSun,                                  !- Sun Exposure
  NoWind,                                 !- Wind Exposure
  ,                                       !- View Factor to Ground
  ,                                       !- Number of Vertices
  0, 0, 0,                                !- X,Y,Z Vertex 1 {m}
  0, 50, 0,                               !- X,Y,Z Vertex 2 {m}
  3, 47, 0,                               !- X,Y,Z Vertex 3 {m}
  3, 3, 0;                                !- X,Y,Z Vertex 4 {m}

OS:Surface,
  {7e978d36-7724-44dd-92e6-e6042783400b}, !- Handle
  Surface 2,                              !- Name
  Wall,                                   !- Surface Type
  {5d89f431-efbe-4a55-a1a0-e2202da85aa6}, !- Construction Name
  {7fad63eb-ecfd-4c26-9828-9deb76622455}, !- Space Name
  Outdoors,                               !- Outside Boundary Condition
  ,                                       !- Outside Boundary Condition Object
  SunExposed,                             !- Sun Exposure
  WindExposed,                            !- Wind Exposure
  ,                                       !- View Factor to Ground
  ,                                       !- Number of Vertices
  0, 50, 4,                               !- X,Y,Z Vertex 1 {m}
  0, 50, 0,                               !- X,Y,Z Vertex 2 {m}
  0, 0, 0,                                !- X,Y,Z Vertex 3 {m}
  0, 0, 4;                                !- X,Y,Z Vertex 4 {m}

OS:Surface,
  {3012895c-5813-4be1-bad7-eb49a33eca90}, !- Handle
  Surface 3,                              !- Name
  Wall,                                   !- Surface Type
  {567c9127-7b64-4159-b0a8-3c86f8b4066b}, !- Construction Name
  {7fad63eb-ecfd-4c26-9828-9deb76622455}, !- Space Name
  Surface,                                !- Outside Boundary Condition
  {4004ccec-40ec-4e49-b7a3-5387ecfde5e8}, !- Outside Boundary Condition Object
  NoSun,                                  !- Sun Exposure
  NoWind,                                 !- Wind Exposure
  ,                                       !- View Factor to Ground
  ,                                       !- Number of Vertices
  3, 47, 4,                               !- X,Y,Z Vertex 1 {m}
  3, 47, 0,                               !- X,Y,Z Vertex 2 {m}
  0, 50, 0,                               !- X,Y,Z Vertex 3 {m}
  0, 50, 4;                               !- X,Y,Z Vertex 4 {m}

OS:Surface,
  {d15bb9bc-5d55-4d1b-a972-fcd5751331f5}, !- Handle
  Surface 4,                              !- Name
  Wall,                                   !- Surface Type
  {567c9127-7b64-4159-b0a8-3c86f8b4066b}, !- Construction Name
  {7fad63eb-ecfd-4c26-9828-9deb76622455}, !- Space Name
  Surface,                                !- Outside Boundary Condition
  {3ed6a907-4f1d-4d50-aca7-ff7a902ecdd0}, !- Outside Boundary Condition Object
  NoSun,                                  !- Sun Exposure
  NoWind,                                 !- Wind Exposure
  ,                                       !- View Factor to Ground
  ,                                       !- Number of Vertices
  3, 3, 4,                                !- X,Y,Z Vertex 1 {m}
  3, 3, 0,                                !- X,Y,Z Vertex 2 {m}
  3, 47, 0,                               !- X,Y,Z Vertex 3 {m}
  3, 47, 4;                               !- X,Y,Z Vertex 4 {m}

OS:Surface,
  {0280748f-42f5-44dd-be0b-5ada966c3f2b}, !- Handle
  Surface 5,                              !- Name
  Wall,                                   !- Surface Type
  {567c9127-7b64-4159-b0a8-3c86f8b4066b}, !- Construction Name
  {7fad63eb-ecfd-4c26-9828-9deb76622455}, !- Space Name
  Surface,                                !- Outside Boundary Condition
  {2cfef1a0-35c1-4b76-92a8-94199e5c3987}, !- Outside Boundary Condition Object
  NoSun,                                  !- Sun Exposure
  NoWind,                                 !- Wind Exposure
  ,                                       !- View Factor to Ground
  ,                                       !- Number of Vertices
  0, 0, 4,                                !- X,Y,Z Vertex 1 {m}
  0, 0, 0,                                !- X,Y,Z Vertex 2 {m}
  3, 3, 0,                                !- X,Y,Z Vertex 3 {m}
  3, 3, 4;                                !- X,Y,Z Vertex 4 {m}

OS:Surface,
  {586b9681-9c04-485c-bd9b-b87398f20dd1}, !- Handle
  Surface 6,                              !- Name
  RoofCeiling,                            !- Surface Type
  {91733ac8-1ebf-4b1c-8bbc-b29a22439055}, !- Construction Name
  {7fad63eb-ecfd-4c26-9828-9deb76622455}, !- Space Name
  Surface,                                !- Outside Boundary Condition
  {05bbf8d1-65ad-4ee8-ab2d-aa2a0999f8fc}, !- Outside Boundary Condition Object
  NoSun,                                  !- Sun Exposure
  NoWind,                                 !- Wind Exposure
  ,                                       !- View Factor to Ground
  ,                                       !- Number of Vertices
  3, 3, 4,                                !- X,Y,Z Vertex 1 {m}
  3, 47, 4,                               !- X,Y,Z Vertex 2 {m}
  0, 50, 4,                               !- X,Y,Z Vertex 3 {m}
  0, 0, 4;                                !- X,Y,Z Vertex 4 {m}

OS:Space,
  {88cbf704-6f53-45e4-9dff-2ee3226e6c6b}, !- Handle
  Story 1 North Perimeter Space,          !- Name
  ,                                       !- Space Type Name
  ,                                       !- Default Construction Set Name
  ,                                       !- Default Schedule Set Name
  -0,                                     !- Direction of Relative North {deg}
  3,                                      !- X Origin {m}
  47,                                     !- Y Origin {m}
  0,                                      !- Z Origin {m}
  {50e8f40e-83c2-47ac-b598-6b4c4ef7f29d}, !- Building Story Name
  {47ad4231-a870-41e2-bad6-525da172dc8d}; !- Thermal Zone Name

OS:Surface,
  {100a9347-1db8-4aa5-a7d8-84d495516a65}, !- Handle
  Surface 7,                              !- Name
  Floor,                                  !- Surface Type
  {db273564-a0de-4979-bd14-462e054691ec}, !- Construction Name
  {88cbf704-6f53-45e4-9dff-2ee3226e6c6b}, !- Space Name
  OtherSideCoefficients,                  !- Outside Boundary Condition
  {ef724a03-6a38-48db-9f70-41589f291f1b}, !- Outside Boundary Condition Object
  NoSun,                                  !- Sun Exposure
  NoWind,                                 !- Wind Exposure
  ,                                       !- View Factor to Ground
  ,                                       !- Number of Vertices
  -3, 3, 0,                               !- X,Y,Z Vertex 1 {m}
  97, 3, 0,                               !- X,Y,Z Vertex 2 {m}
  94, 0, 0,                               !- X,Y,Z Vertex 3 {m}
  0, 0, 0;                                !- X,Y,Z Vertex 4 {m}

OS:Surface,
  {14ad7ac8-e2e0-455f-a280-386d6ea4504e}, !- Handle
  Surface 8,                              !- Name
  Wall,                                   !- Surface Type
  {5d89f431-efbe-4a55-a1a0-e2202da85aa6}, !- Construction Name
  {88cbf704-6f53-45e4-9dff-2ee3226e6c6b}, !- Space Name
  Outdoors,                               !- Outside Boundary Condition
  ,                                       !- Outside Boundary Condition Object
  SunExposed,                             !- Sun Exposure
  WindExposed,                            !- Wind Exposure
  ,                                       !- View Factor to Ground
  ,                                       !- Number of Vertices
  97, 3, 4,                               !- X,Y,Z Vertex 1 {m}
  97, 3, 0,                               !- X,Y,Z Vertex 2 {m}
  -3, 3, 0,                               !- X,Y,Z Vertex 3 {m}
  -3, 3, 4;                               !- X,Y,Z Vertex 4 {m}

OS:Surface,
  {d35818c3-1102-4122-9723-8cc01894100a}, !- Handle
  Surface 9,                              !- Name
  Wall,                                   !- Surface Type
  {567c9127-7b64-4159-b0a8-3c86f8b4066b}, !- Construction Name
  {88cbf704-6f53-45e4-9dff-2ee3226e6c6b}, !- Space Name
  Surface,                                !- Outside Boundary Condition
  {2bf5112a-3967-4133-b3ec-913295c3e2cf}, !- Outside Boundary Condition Object
  NoSun,                                  !- Sun Exposure
  NoWind,                                 !- Wind Exposure
  ,                                       !- View Factor to Ground
  ,                                       !- Number of Vertices
  94, 0, 4,                               !- X,Y,Z Vertex 1 {m}
  94, 0, 0,                               !- X,Y,Z Vertex 2 {m}
  97, 3, 0,                               !- X,Y,Z Vertex 3 {m}
  97, 3, 4;                               !- X,Y,Z Vertex 4 {m}

OS:Surface,
  {29e8b3ca-dbd7-42b3-9408-613b36244c9c}, !- Handle
  Surface 10,                             !- Name
  Wall,                                   !- Surface Type
  {567c9127-7b64-4159-b0a8-3c86f8b4066b}, !- Construction Name
  {88cbf704-6f53-45e4-9dff-2ee3226e6c6b}, !- Space Name
  Surface,                                !- Outside Boundary Condition
  {f6a1e26b-5d14-420d-8de9-2a8828c24469}, !- Outside Boundary Condition Object
  NoSun,                                  !- Sun Exposure
  NoWind,                                 !- Wind Exposure
  ,                                       !- View Factor to Ground
  ,                                       !- Number of Vertices
  0, 0, 4,                                !- X,Y,Z Vertex 1 {m}
  0, 0, 0,                                !- X,Y,Z Vertex 2 {m}
  94, 0, 0,                               !- X,Y,Z Vertex 3 {m}
  94, 0, 4;                               !- X,Y,Z Vertex 4 {m}

OS:Surface,
  {4004ccec-40ec-4e49-b7a3-5387ecfde5e8}, !- Handle
  Surface 11,                             !- Name
  Wall,                                   !- Surface Type
  {567c9127-7b64-4159-b0a8-3c86f8b4066b}, !- Construction Name
  {88cbf704-6f53-45e4-9dff-2ee3226e6c6b}, !- Space Name
  Surface,                                !- Outside Boundary Condition
  {3012895c-5813-4be1-bad7-eb49a33eca90}, !- Outside Boundary Condition Object
  NoSun,                                  !- Sun Exposure
  NoWind,                                 !- Wind Exposure
  ,                                       !- View Factor to Ground
  ,                                       !- Number of Vertices
  -3, 3, 4,                               !- X,Y,Z Vertex 1 {m}
  -3, 3, 0,                               !- X,Y,Z Vertex 2 {m}
  0, 0, 0,                                !- X,Y,Z Vertex 3 {m}
  0, 0, 4;                                !- X,Y,Z Vertex 4 {m}

OS:Surface,
  {303e2ac9-2612-4743-882f-59476abf33f5}, !- Handle
  Surface 12,                             !- Name
  RoofCeiling,                            !- Surface Type
  {91733ac8-1ebf-4b1c-8bbc-b29a22439055}, !- Construction Name
  {88cbf704-6f53-45e4-9dff-2ee3226e6c6b}, !- Space Name
  Surface,                                !- Outside Boundary Condition
  {61051da8-6cbf-4407-a14e-591130a2ab5d}, !- Outside Boundary Condition Object
  NoSun,                                  !- Sun Exposure
  NoWind,                                 !- Wind Exposure
  ,                                       !- View Factor to Ground
  ,                                       !- Number of Vertices
  0, 0, 4,                                !- X,Y,Z Vertex 1 {m}
  94, 0, 4,                               !- X,Y,Z Vertex 2 {m}
  97, 3, 4,                               !- X,Y,Z Vertex 3 {m}
  -3, 3, 4;                               !- X,Y,Z Vertex 4 {m}

OS:Space,
  {44094c62-cd77-47b7-9845-7691553634ea}, !- Handle
  Story 1 East Perimeter Space,           !- Name
  ,                                       !- Space Type Name
  ,                                       !- Default Construction Set Name
  ,                                       !- Default Schedule Set Name
  -0,                                     !- Direction of Relative North {deg}
  97,                                     !- X Origin {m}
  3,                                      !- Y Origin {m}
  0,                                      !- Z Origin {m}
  {50e8f40e-83c2-47ac-b598-6b4c4ef7f29d}, !- Building Story Name
  {7f1bbc69-6aa0-4f45-bbad-2294f63e9667}; !- Thermal Zone Name

OS:Surface,
  {af36320d-fce8-4c49-bb49-b1fb7f1700c5}, !- Handle
  Surface 13,                             !- Name
  Floor,                                  !- Surface Type
  {db273564-a0de-4979-bd14-462e054691ec}, !- Construction Name
  {44094c62-cd77-47b7-9845-7691553634ea}, !- Space Name
  OtherSideCoefficients,                  !- Outside Boundary Condition
  {ef724a03-6a38-48db-9f70-41589f291f1b}, !- Outside Boundary Condition Object
  NoSun,                                  !- Sun Exposure
  NoWind,                                 !- Wind Exposure
  ,                                       !- View Factor to Ground
  ,                                       !- Number of Vertices
  3, 47, 0,                               !- X,Y,Z Vertex 1 {m}
  3, -3, 0,                               !- X,Y,Z Vertex 2 {m}
  0, 0, 0,                                !- X,Y,Z Vertex 3 {m}
  0, 44, 0;                               !- X,Y,Z Vertex 4 {m}

OS:Surface,
  {2b05709d-131f-46b0-8573-da4cd3517cb8}, !- Handle
  Surface 14,                             !- Name
  Wall,                                   !- Surface Type
  {5d89f431-efbe-4a55-a1a0-e2202da85aa6}, !- Construction Name
  {44094c62-cd77-47b7-9845-7691553634ea}, !- Space Name
  Outdoors,                               !- Outside Boundary Condition
  ,                                       !- Outside Boundary Condition Object
  SunExposed,                             !- Sun Exposure
  WindExposed,                            !- Wind Exposure
  ,                                       !- View Factor to Ground
  ,                                       !- Number of Vertices
  3, -3, 4,                               !- X,Y,Z Vertex 1 {m}
  3, -3, 0,                               !- X,Y,Z Vertex 2 {m}
  3, 47, 0,                               !- X,Y,Z Vertex 3 {m}
  3, 47, 4;                               !- X,Y,Z Vertex 4 {m}

OS:Surface,
  {0fdacc03-f2be-495c-a7e6-000a3348e75f}, !- Handle
  Surface 15,                             !- Name
  Wall,                                   !- Surface Type
  {567c9127-7b64-4159-b0a8-3c86f8b4066b}, !- Construction Name
  {44094c62-cd77-47b7-9845-7691553634ea}, !- Space Name
  Surface,                                !- Outside Boundary Condition
  {bcfd2bc3-c14a-4213-9341-d1e706e30ebd}, !- Outside Boundary Condition Object
  NoSun,                                  !- Sun Exposure
  NoWind,                                 !- Wind Exposure
  ,                                       !- View Factor to Ground
  ,                                       !- Number of Vertices
  0, 0, 4,                                !- X,Y,Z Vertex 1 {m}
  0, 0, 0,                                !- X,Y,Z Vertex 2 {m}
  3, -3, 0,                               !- X,Y,Z Vertex 3 {m}
  3, -3, 4;                               !- X,Y,Z Vertex 4 {m}

OS:Surface,
  {95b1b7d6-86bc-465c-90de-fb4348c4919e}, !- Handle
  Surface 16,                             !- Name
  Wall,                                   !- Surface Type
  {567c9127-7b64-4159-b0a8-3c86f8b4066b}, !- Construction Name
  {44094c62-cd77-47b7-9845-7691553634ea}, !- Space Name
  Surface,                                !- Outside Boundary Condition
  {c56ac182-6bca-443e-b1a1-dd3c180cb52d}, !- Outside Boundary Condition Object
  NoSun,                                  !- Sun Exposure
  NoWind,                                 !- Wind Exposure
  ,                                       !- View Factor to Ground
  ,                                       !- Number of Vertices
  0, 44, 4,                               !- X,Y,Z Vertex 1 {m}
  0, 44, 0,                               !- X,Y,Z Vertex 2 {m}
  0, 0, 0,                                !- X,Y,Z Vertex 3 {m}
  0, 0, 4;                                !- X,Y,Z Vertex 4 {m}

OS:Surface,
  {2bf5112a-3967-4133-b3ec-913295c3e2cf}, !- Handle
  Surface 17,                             !- Name
  Wall,                                   !- Surface Type
  {567c9127-7b64-4159-b0a8-3c86f8b4066b}, !- Construction Name
  {44094c62-cd77-47b7-9845-7691553634ea}, !- Space Name
  Surface,                                !- Outside Boundary Condition
  {d35818c3-1102-4122-9723-8cc01894100a}, !- Outside Boundary Condition Object
  NoSun,                                  !- Sun Exposure
  NoWind,                                 !- Wind Exposure
  ,                                       !- View Factor to Ground
  ,                                       !- Number of Vertices
  3, 47, 4,                               !- X,Y,Z Vertex 1 {m}
  3, 47, 0,                               !- X,Y,Z Vertex 2 {m}
  0, 44, 0,                               !- X,Y,Z Vertex 3 {m}
  0, 44, 4;                               !- X,Y,Z Vertex 4 {m}

OS:Surface,
  {8e1e88f6-8397-4e7f-8098-bdf7952aebc1}, !- Handle
  Surface 18,                             !- Name
  RoofCeiling,                            !- Surface Type
  {91733ac8-1ebf-4b1c-8bbc-b29a22439055}, !- Construction Name
  {44094c62-cd77-47b7-9845-7691553634ea}, !- Space Name
  Surface,                                !- Outside Boundary Condition
  {abc75b0c-080b-4f8d-9e30-c888e11595a1}, !- Outside Boundary Condition Object
  NoSun,                                  !- Sun Exposure
  NoWind,                                 !- Wind Exposure
  ,                                       !- View Factor to Ground
  ,                                       !- Number of Vertices
  0, 44, 4,                               !- X,Y,Z Vertex 1 {m}
  0, 0, 4,                                !- X,Y,Z Vertex 2 {m}
  3, -3, 4,                               !- X,Y,Z Vertex 3 {m}
  3, 47, 4;                               !- X,Y,Z Vertex 4 {m}

OS:Space,
  {9aa55b39-35db-46f7-b054-1f87ef33749a}, !- Handle
  Story 1 South Perimeter Space,          !- Name
  ,                                       !- Space Type Name
  ,                                       !- Default Construction Set Name
  ,                                       !- Default Schedule Set Name
  -0,                                     !- Direction of Relative North {deg}
  0,                                      !- X Origin {m}
  0,                                      !- Y Origin {m}
  0,                                      !- Z Origin {m}
  {50e8f40e-83c2-47ac-b598-6b4c4ef7f29d}, !- Building Story Name
  {b61adb6a-a2ca-45d6-b8d6-07fc05bcb2b5}; !- Thermal Zone Name

OS:Surface,
  {6b32a590-ac7a-4828-9b8e-1d1fdab98e98}, !- Handle
  Surface 19,                             !- Name
  Floor,                                  !- Surface Type
  {db273564-a0de-4979-bd14-462e054691ec}, !- Construction Name
  {9aa55b39-35db-46f7-b054-1f87ef33749a}, !- Space Name
  OtherSideCoefficients,                  !- Outside Boundary Condition
  {ef724a03-6a38-48db-9f70-41589f291f1b}, !- Outside Boundary Condition Object
  NoSun,                                  !- Sun Exposure
  NoWind,                                 !- Wind Exposure
  ,                                       !- View Factor to Ground
  ,                                       !- Number of Vertices
  100, 0, 0,                              !- X,Y,Z Vertex 1 {m}
  0, 0, 0,                                !- X,Y,Z Vertex 2 {m}
  3, 3, 0,                                !- X,Y,Z Vertex 3 {m}
  97, 3, 0;                               !- X,Y,Z Vertex 4 {m}

OS:Surface,
  {31b72359-e32f-44a7-84ae-c45ccc591c2b}, !- Handle
  Surface 20,                             !- Name
  Wall,                                   !- Surface Type
  {5d89f431-efbe-4a55-a1a0-e2202da85aa6}, !- Construction Name
  {9aa55b39-35db-46f7-b054-1f87ef33749a}, !- Space Name
  Outdoors,                               !- Outside Boundary Condition
  ,                                       !- Outside Boundary Condition Object
  SunExposed,                             !- Sun Exposure
  WindExposed,                            !- Wind Exposure
  ,                                       !- View Factor to Ground
  ,                                       !- Number of Vertices
  0, 0, 4,                                !- X,Y,Z Vertex 1 {m}
  0, 0, 0,                                !- X,Y,Z Vertex 2 {m}
  100, 0, 0,                              !- X,Y,Z Vertex 3 {m}
  100, 0, 4;                              !- X,Y,Z Vertex 4 {m}

OS:Surface,
  {2cfef1a0-35c1-4b76-92a8-94199e5c3987}, !- Handle
  Surface 21,                             !- Name
  Wall,                                   !- Surface Type
  {567c9127-7b64-4159-b0a8-3c86f8b4066b}, !- Construction Name
  {9aa55b39-35db-46f7-b054-1f87ef33749a}, !- Space Name
  Surface,                                !- Outside Boundary Condition
  {0280748f-42f5-44dd-be0b-5ada966c3f2b}, !- Outside Boundary Condition Object
  NoSun,                                  !- Sun Exposure
  NoWind,                                 !- Wind Exposure
  ,                                       !- View Factor to Ground
  ,                                       !- Number of Vertices
  3, 3, 4,                                !- X,Y,Z Vertex 1 {m}
  3, 3, 0,                                !- X,Y,Z Vertex 2 {m}
  0, 0, 0,                                !- X,Y,Z Vertex 3 {m}
  0, 0, 4;                                !- X,Y,Z Vertex 4 {m}

OS:Surface,
  {68c5b80d-bfb0-4df0-b29a-ce66e7d81024}, !- Handle
  Surface 22,                             !- Name
  Wall,                                   !- Surface Type
  {567c9127-7b64-4159-b0a8-3c86f8b4066b}, !- Construction Name
  {9aa55b39-35db-46f7-b054-1f87ef33749a}, !- Space Name
  Surface,                                !- Outside Boundary Condition
  {ed36a0be-083b-43fd-bd63-9c25326f2ea4}, !- Outside Boundary Condition Object
  NoSun,                                  !- Sun Exposure
  NoWind,                                 !- Wind Exposure
  ,                                       !- View Factor to Ground
  ,                                       !- Number of Vertices
  97, 3, 4,                               !- X,Y,Z Vertex 1 {m}
  97, 3, 0,                               !- X,Y,Z Vertex 2 {m}
  3, 3, 0,                                !- X,Y,Z Vertex 3 {m}
  3, 3, 4;                                !- X,Y,Z Vertex 4 {m}

OS:Surface,
  {bcfd2bc3-c14a-4213-9341-d1e706e30ebd}, !- Handle
  Surface 23,                             !- Name
  Wall,                                   !- Surface Type
  {567c9127-7b64-4159-b0a8-3c86f8b4066b}, !- Construction Name
  {9aa55b39-35db-46f7-b054-1f87ef33749a}, !- Space Name
  Surface,                                !- Outside Boundary Condition
  {0fdacc03-f2be-495c-a7e6-000a3348e75f}, !- Outside Boundary Condition Object
  NoSun,                                  !- Sun Exposure
  NoWind,                                 !- Wind Exposure
  ,                                       !- View Factor to Ground
  ,                                       !- Number of Vertices
  100, 0, 4,                              !- X,Y,Z Vertex 1 {m}
  100, 0, 0,                              !- X,Y,Z Vertex 2 {m}
  97, 3, 0,                               !- X,Y,Z Vertex 3 {m}
  97, 3, 4;                               !- X,Y,Z Vertex 4 {m}

OS:Surface,
  {ab33efa2-db1c-4658-a30f-c09f14ef6b81}, !- Handle
  Surface 24,                             !- Name
  RoofCeiling,                            !- Surface Type
  {91733ac8-1ebf-4b1c-8bbc-b29a22439055}, !- Construction Name
  {9aa55b39-35db-46f7-b054-1f87ef33749a}, !- Space Name
  Surface,                                !- Outside Boundary Condition
  {c2c5e8cb-76b0-4e60-9571-c9f8f217059b}, !- Outside Boundary Condition Object
  NoSun,                                  !- Sun Exposure
  NoWind,                                 !- Wind Exposure
  ,                                       !- View Factor to Ground
  ,                                       !- Number of Vertices
  97, 3, 4,                               !- X,Y,Z Vertex 1 {m}
  3, 3, 4,                                !- X,Y,Z Vertex 2 {m}
  0, 0, 4,                                !- X,Y,Z Vertex 3 {m}
  100, 0, 4;                              !- X,Y,Z Vertex 4 {m}

OS:Space,
  {b7d1a9dd-0015-40de-a207-7d695fadc059}, !- Handle
  Story 1 Core Space,                     !- Name
  ,                                       !- Space Type Name
  ,                                       !- Default Construction Set Name
  ,                                       !- Default Schedule Set Name
  -0,                                     !- Direction of Relative North {deg}
  3,                                      !- X Origin {m}
  3,                                      !- Y Origin {m}
  0,                                      !- Z Origin {m}
  {50e8f40e-83c2-47ac-b598-6b4c4ef7f29d}, !- Building Story Name
  {58ec8168-d2ce-4d3c-bdeb-f7ae8184f78d}; !- Thermal Zone Name

OS:Surface,
  {b71a084f-d185-479d-a38e-a96bf60a24b3}, !- Handle
  Surface 25,                             !- Name
  Floor,                                  !- Surface Type
  {db273564-a0de-4979-bd14-462e054691ec}, !- Construction Name
  {b7d1a9dd-0015-40de-a207-7d695fadc059}, !- Space Name
  OtherSideCoefficients,                  !- Outside Boundary Condition
  {ef724a03-6a38-48db-9f70-41589f291f1b}, !- Outside Boundary Condition Object
  NoSun,                                  !- Sun Exposure
  NoWind,                                 !- Wind Exposure
  ,                                       !- View Factor to Ground
  ,                                       !- Number of Vertices
  0, 0, 0,                                !- X,Y,Z Vertex 1 {m}
  0, 44, 0,                               !- X,Y,Z Vertex 2 {m}
  94, 44, 0,                              !- X,Y,Z Vertex 3 {m}
  94, 0, 0;                               !- X,Y,Z Vertex 4 {m}

OS:Surface,
  {3ed6a907-4f1d-4d50-aca7-ff7a902ecdd0}, !- Handle
  Surface 26,                             !- Name
  Wall,                                   !- Surface Type
  {567c9127-7b64-4159-b0a8-3c86f8b4066b}, !- Construction Name
  {b7d1a9dd-0015-40de-a207-7d695fadc059}, !- Space Name
  Surface,                                !- Outside Boundary Condition
  {d15bb9bc-5d55-4d1b-a972-fcd5751331f5}, !- Outside Boundary Condition Object
  NoSun,                                  !- Sun Exposure
  NoWind,                                 !- Wind Exposure
  ,                                       !- View Factor to Ground
  ,                                       !- Number of Vertices
  0, 44, 4,                               !- X,Y,Z Vertex 1 {m}
  0, 44, 0,                               !- X,Y,Z Vertex 2 {m}
  0, 0, 0,                                !- X,Y,Z Vertex 3 {m}
  0, 0, 4;                                !- X,Y,Z Vertex 4 {m}

OS:Surface,
  {f6a1e26b-5d14-420d-8de9-2a8828c24469}, !- Handle
  Surface 27,                             !- Name
  Wall,                                   !- Surface Type
  {567c9127-7b64-4159-b0a8-3c86f8b4066b}, !- Construction Name
  {b7d1a9dd-0015-40de-a207-7d695fadc059}, !- Space Name
  Surface,                                !- Outside Boundary Condition
  {29e8b3ca-dbd7-42b3-9408-613b36244c9c}, !- Outside Boundary Condition Object
  NoSun,                                  !- Sun Exposure
  NoWind,                                 !- Wind Exposure
  ,                                       !- View Factor to Ground
  ,                                       !- Number of Vertices
  94, 44, 4,                              !- X,Y,Z Vertex 1 {m}
  94, 44, 0,                              !- X,Y,Z Vertex 2 {m}
  0, 44, 0,                               !- X,Y,Z Vertex 3 {m}
  0, 44, 4;                               !- X,Y,Z Vertex 4 {m}

OS:Surface,
  {c56ac182-6bca-443e-b1a1-dd3c180cb52d}, !- Handle
  Surface 28,                             !- Name
  Wall,                                   !- Surface Type
  {567c9127-7b64-4159-b0a8-3c86f8b4066b}, !- Construction Name
  {b7d1a9dd-0015-40de-a207-7d695fadc059}, !- Space Name