
OS:Version,
  {103e9d27-e305-4149-81df-4f4494d3300a}, !- Handle
  1.10.1;                                 !- Version Identifier

OS:BuildingStory,
  {ee3b68ff-92f1-4f4d-b3ba-51c781d043a2}, !- Handle
  Story 1,                                !- Name
  0,                                      !- Nominal Z Coordinate {m}
  4,                                      !- Nominal Floor to Floor Height {m}
  ,                                       !- Default Construction Set Name
  ,                                       !- Default Schedule Set Name
  ;                                       !- Group Rendering Name

OS:Space,
  {403bc53f-5349-4608-ad69-675230f16e59}, !- Handle
  Story 1 West Perimeter Space,           !- Name
  ,                                       !- Space Type Name
  ,                                       !- Default Construction Set Name
  ,                                       !- Default Schedule Set Name
  -0,                                     !- Direction of Relative North {deg}
  0,                                      !- X Origin {m}
  0,                                      !- Y Origin {m}
  0,                                      !- Z Origin {m}
  {ee3b68ff-92f1-4f4d-b3ba-51c781d043a2}, !- Building Story Name
  {0159c425-0f5e-46a7-a85d-e7a17da304ba}; !- Thermal Zone Name

OS:Surface,
  {f58ee152-e86a-444c-9f81-513b524649e6}, !- Handle
  Surface 1,                              !- Name
  Floor,                                  !- Surface Type
  {db273564-a0de-4979-bd14-462e054691ec}, !- Construction Name
  {403bc53f-5349-4608-ad69-675230f16e59}, !- Space Name
  OtherSideCoefficients,                  !- Outside Boundary Condition
  {ead28471-c996-433c-b725-4993a3eaddf5}, !- Outside Boundary Condition Object
  NoSun,                                  !- Sun Exposure
  NoWind,                                 !- Wind Exposure
  ,                                       !- View Factor to Ground
  ,                                       !- Number of Vertices
  0, 0, 0,                                !- X,Y,Z Vertex 1 {m}
  0, 50, 0,                               !- X,Y,Z Vertex 2 {m}
  3, 47, 0,                               !- X,Y,Z Vertex 3 {m}
  3, 3, 0;                                !- X,Y,Z Vertex 4 {m}

OS:Surface,
  {712d33e4-cc38-4683-8df8-be949a3847f5}, !- Handle
  Surface 2,                              !- Name
  Wall,                                   !- Surface Type
  {5d89f431-efbe-4a55-a1a0-e2202da85aa6}, !- Construction Name
  {403bc53f-5349-4608-ad69-675230f16e59}, !- Space Name
  Outdoors,                               !- Outside Boundary Condition
  ,                                       !- Outside Boundary Condition Object
  SunExposed,                             !- Sun Exposure
  WindExposed,                            !- Wind Exposure
  ,                                       !- View Factor to Ground
  ,                                       !- Number of Vertices
  0, 50, 4,                               !- X,Y,Z Vertex 1 {m}
  0, 50, 0,                               !- X,Y,Z Vertex 2 {m}
  0, 0, 0,                                !- X,Y,Z Vertex 3 {m}
  0, 0, 4;                                !- X,Y,Z Vertex 4 {m}

OS:Surface,
  {557a0f92-55ee-4bd7-8bbf-45fdba9c2dea}, !- Handle
  Surface 3,                              !- Name
  Wall,                                   !- Surface Type
  {567c9127-7b64-4159-b0a8-3c86f8b4066b}, !- Construction Name
  {403bc53f-5349-4608-ad69-675230f16e59}, !- Space Name
  Surface,                                !- Outside Boundary Condition
  {f6072f76-dcef-4ab3-b61e-0106965a6480}, !- Outside Boundary Condition Object
  NoSun,                                  !- Sun Exposure
  NoWind,                                 !- Wind Exposure
  ,                                       !- View Factor to Ground
  ,                                       !- Number of Vertices
  3, 47, 4,                               !- X,Y,Z Vertex 1 {m}
  3, 47, 0,                               !- X,Y,Z Vertex 2 {m}
  0, 50, 0,                               !- X,Y,Z Vertex 3 {m}
  0, 50, 4;                               !- X,Y,Z Vertex 4 {m}

OS:Surface,
  {e95f54dd-2792-4e98-a6d3-76b0b9ffc5ec}, !- Handle
  Surface 4,                              !- Name
  Wall,                                   !- Surface Type
  {567c9127-7b64-4159-b0a8-3c86f8b4066b}, !- Construction Name
  {403bc53f-5349-4608-ad69-675230f16e59}, !- Space Name
  Surface,                                !- Outside Boundary Condition
  {d17a15c2-d5ef-49e3-83f5-669e9b884e93}, !- Outside Boundary Condition Object
  NoSun,                                  !- Sun Exposure
  NoWind,                                 !- Wind Exposure
  ,                                       !- View Factor to Ground
  ,                                       !- Number of Vertices
  3, 3, 4,                                !- X,Y,Z Vertex 1 {m}
  3, 3, 0,                                !- X,Y,Z Vertex 2 {m}
  3, 47, 0,                               !- X,Y,Z Vertex 3 {m}
  3, 47, 4;                               !- X,Y,Z Vertex 4 {m}

OS:Surface,
  {102c4d8e-7c99-4642-8bf2-c7055c0c1e34}, !- Handle
  Surface 5,                              !- Name
  Wall,                                   !- Surface Type
  {567c9127-7b64-4159-b0a8-3c86f8b4066b}, !- Construction Name
  {403bc53f-5349-4608-ad69-675230f16e59}, !- Space Name
  Surface,                                !- Outside Boundary Condition
  {c856adfa-54d0-4822-9eac-318ae32e434a}, !- Outside Boundary Condition Object
  NoSun,                                  !- Sun Exposure
  NoWind,                                 !- Wind Exposure
  ,                                       !- View Factor to Ground
  ,                                       !- Number of Vertices
  0, 0, 4,                                !- X,Y,Z Vertex 1 {m}
  0, 0, 0,                                !- X,Y,Z Vertex 2 {m}
  3, 3, 0,                                !- X,Y,Z Vertex 3 {m}
  3, 3, 4;                                !- X,Y,Z Vertex 4 {m}

OS:Surface,
  {5e26acab-8891-419e-b0b2-9beeb9add626}, !- Handle
  Surface 6,                              !- Name
  RoofCeiling,                            !- Surface Type
  {eae8fc43-c074-43cf-a019-653aa70f44f8}, !- Construction Name
  {403bc53f-5349-4608-ad69-675230f16e59}, !- Space Name
  Surface,                                !- Outside Boundary Condition
  {7d05e646-4537-44f7-93b3-c09a4d6662d6}, !- Outside Boundary Condition Object
  NoSun,                                  !- Sun Exposure
  NoWind,                                 !- Wind Exposure
  ,                                       !- View Factor to Ground
  ,                                       !- Number of Vertices
  3, 3, 4,                                !- X,Y,Z Vertex 1 {m}
  3, 47, 4,                               !- X,Y,Z Vertex 2 {m}
  0, 50, 4,                               !- X,Y,Z Vertex 3 {m}
  0, 0, 4;                                !- X,Y,Z Vertex 4 {m}

OS:Space,
  {7039d96d-0182-415c-8350-9b34d47ac947}, !- Handle
  Story 1 North Perimeter Space,          !- Name
  ,                                       !- Space Type Name
  ,                                       !- Default Construction Set Name
  ,                                       !- Default Schedule Set Name
  -0,                                     !- Direction of Relative North {deg}
  3,                                      !- X Origin {m}
  47,                                     !- Y Origin {m}
  0,                                      !- Z Origin {m}
  {ee3b68ff-92f1-4f4d-b3ba-51c781d043a2}, !- Building Story Name
  {6812cd38-b377-448d-81ea-4fbac0b480b5}; !- Thermal Zone Name

OS:Surface,
  {0b552908-96cd-4cb3-8c2f-290c54466d2a}, !- Handle
  Surface 7,                              !- Name
  Floor,                                  !- Surface Type
  {db273564-a0de-4979-bd14-462e054691ec}, !- Construction Name
  {7039d96d-0182-415c-8350-9b34d47ac947}, !- Space Name
  OtherSideCoefficients,                  !- Outside Boundary Condition
  {ead28471-c996-433c-b725-4993a3eaddf5}, !- Outside Boundary Condition Object
  NoSun,                                  !- Sun Exposure
  NoWind,                                 !- Wind Exposure
  ,                                       !- View Factor to Ground
  ,                                       !- Number of Vertices
  -3, 3, 0,                               !- X,Y,Z Vertex 1 {m}
  97, 3, 0,                               !- X,Y,Z Vertex 2 {m}
  94, 0, 0,                               !- X,Y,Z Vertex 3 {m}
  0, 0, 0;                                !- X,Y,Z Vertex 4 {m}

OS:Surface,
  {63cb3638-3ade-488b-a2b6-e775acf3c187}, !- Handle
  Surface 8,                              !- Name
  Wall,                                   !- Surface Type
  {5d89f431-efbe-4a55-a1a0-e2202da85aa6}, !- Construction Name
  {7039d96d-0182-415c-8350-9b34d47ac947}, !- Space Name
  Outdoors,                               !- Outside Boundary Condition
  ,                                       !- Outside Boundary Condition Object
  SunExposed,                             !- Sun Exposure
  WindExposed,                            !- Wind Exposure
  ,                                       !- View Factor to Ground
  ,                                       !- Number of Vertices
  97, 3, 4,                               !- X,Y,Z Vertex 1 {m}
  97, 3, 0,                               !- X,Y,Z Vertex 2 {m}
  -3, 3, 0,                               !- X,Y,Z Vertex 3 {m}
  -3, 3, 4;                               !- X,Y,Z Vertex 4 {m}

OS:Surface,
  {47db6c5f-7ce2-4acd-a250-21ae03f38606}, !- Handle
  Surface 9,                              !- Name
  Wall,                                   !- Surface Type
  {567c9127-7b64-4159-b0a8-3c86f8b4066b}, !- Construction Name
  {7039d96d-0182-415c-8350-9b34d47ac947}, !- Space Name
  Surface,                                !- Outside Boundary Condition
  {c7411548-93ee-48cd-938d-32e417534c98}, !- Outside Boundary Condition Object
  NoSun,                                  !- Sun Exposure
  NoWind,                                 !- Wind Exposure
  ,                                       !- View Factor to Ground
  ,                                       !- Number of Vertices
  94, 0, 4,                               !- X,Y,Z Vertex 1 {m}
  94, 0, 0,                               !- X,Y,Z Vertex 2 {m}
  97, 3, 0,                               !- X,Y,Z Vertex 3 {m}
  97, 3, 4;                               !- X,Y,Z Vertex 4 {m}

OS:Surface,
  {cdcf9e15-ca5d-4c3d-b977-106da9d92cf0}, !- Handle
  Surface 10,                             !- Name
  Wall,                                   !- Surface Type
  {567c9127-7b64-4159-b0a8-3c86f8b4066b}, !- Construction Name
  {7039d96d-0182-415c-8350-9b34d47ac947}, !- Space Name
  Surface,                                !- Outside Boundary Condition
  {d4e3579f-0cdd-4d7b-9bb9-b4c472530121}, !- Outside Boundary Condition Object
  NoSun,                                  !- Sun Exposure
  NoWind,                                 !- Wind Exposure
  ,                                       !- View Factor to Ground
  ,                                       !- Number of Vertices
  0, 0, 4,                                !- X,Y,Z Vertex 1 {m}
  0, 0, 0,                                !- X,Y,Z Vertex 2 {m}
  94, 0, 0,                               !- X,Y,Z Vertex 3 {m}
  94, 0, 4;                               !- X,Y,Z Vertex 4 {m}

OS:Surface,
  {f6072f76-dcef-4ab3-b61e-0106965a6480}, !- Handle
  Surface 11,                             !- Name
  Wall,                                   !- Surface Type
  {567c9127-7b64-4159-b0a8-3c86f8b4066b}, !- Construction Name
  {7039d96d-0182-415c-8350-9b34d47ac947}, !- Space Name
  Surface,                                !- Outside Boundary Condition
  {557a0f92-55ee-4bd7-8bbf-45fdba9c2dea}, !- Outside Boundary Condition Object
  NoSun,                                  !- Sun Exposure
  NoWind,                                 !- Wind Exposure
  ,                                       !- View Factor to Ground
  ,                                       !- Number of Vertices
  -3, 3, 4,                               !- X,Y,Z Vertex 1 {m}
  -3, 3, 0,                               !- X,Y,Z Vertex 2 {m}
  0, 0, 0,                                !- X,Y,Z Vertex 3 {m}
  0, 0, 4;                                !- X,Y,Z Vertex 4 {m}

OS:Surface,
  {b5ddb0e5-c6ce-4b54-9bf1-318ea13a8139}, !- Handle
  Surface 12,                             !- Name
  RoofCeiling,                            !- Surface Type
  {91733ac8-1ebf-4b1c-8bbc-b29a22439055}, !- Construction Name
  {7039d96d-0182-415c-8350-9b34d47ac947}, !- Space Name
  Surface,                                !- Outside Boundary Condition
  {cd0e090d-e6ff-484f-b5c4-1c18350c2760}, !- Outside Boundary Condition Object
  NoSun,                                  !- Sun Exposure
  NoWind,                                 !- Wind Exposure
  ,                                       !- View Factor to Ground
  ,                                       !- Number of Vertices
  0, 0, 4,                                !- X,Y,Z Vertex 1 {m}
  94, 0, 4,                               !- X,Y,Z Vertex 2 {m}
  97, 3, 4,                               !- X,Y,Z Vertex 3 {m}
  -3, 3, 4;                               !- X,Y,Z Vertex 4 {m}

OS:Space,
  {63640f13-0cca-4adb-a9bf-d5a5db2a5530}, !- Handle
  Story 1 East Perimeter Space,           !- Name
  ,                                       !- Space Type Name
  ,                                       !- Default Construction Set Name
  ,                                       !- Default Schedule Set Name
  -0,                                     !- Direction of Relative North {deg}
  97,                                     !- X Origin {m}
  3,                                      !- Y Origin {m}
  0,                                      !- Z Origin {m}
  {ee3b68ff-92f1-4f4d-b3ba-51c781d043a2}, !- Building Story Name
  {03837661-3704-45ff-bab2-5da3d716b03d}; !- Thermal Zone Name

OS:Surface,
  {bb53e4fe-8278-4fd3-8960-eb95169a6d7d}, !- Handle
  Surface 13,                             !- Name
  Floor,                                  !- Surface Type
  {db273564-a0de-4979-bd14-462e054691ec}, !- Construction Name
  {63640f13-0cca-4adb-a9bf-d5a5db2a5530}, !- Space Name
  OtherSideCoefficients,                  !- Outside Boundary Condition
  {ead28471-c996-433c-b725-4993a3eaddf5}, !- Outside Boundary Condition Object
  NoSun,                                  !- Sun Exposure
  NoWind,                                 !- Wind Exposure
  ,                                       !- View Factor to Ground
  ,                                       !- Number of Vertices
  3, 47, 0,                               !- X,Y,Z Vertex 1 {m}
  3, -3, 0,                               !- X,Y,Z Vertex 2 {m}
  0, 0, 0,                                !- X,Y,Z Vertex 3 {m}
  0, 44, 0;                               !- X,Y,Z Vertex 4 {m}

OS:Surface,
  {fa8ef504-201b-4ffd-86eb-d97811d1aa2e}, !- Handle
  Surface 14,                             !- Name
  Wall,                                   !- Surface Type
  {5d89f431-efbe-4a55-a1a0-e2202da85aa6}, !- Construction Name
  {63640f13-0cca-4adb-a9bf-d5a5db2a5530}, !- Space Name
  Outdoors,                               !- Outside Boundary Condition
  ,                                       !- Outside Boundary Condition Object
  SunExposed,                             !- Sun Exposure
  WindExposed,                            !- Wind Exposure
  ,                                       !- View Factor to Ground
  ,                                       !- Number of Vertices
  3, -3, 4,                               !- X,Y,Z Vertex 1 {m}
  3, -3, 0,                               !- X,Y,Z Vertex 2 {m}
  3, 47, 0,                               !- X,Y,Z Vertex 3 {m}
  3, 47, 4;                               !- X,Y,Z Vertex 4 {m}

OS:Surface,
  {9533f7bf-a312-4693-b1ed-0339e216a4a9}, !- Handle
  Surface 15,                             !- Name
  Wall,                                   !- Surface Type
  {567c9127-7b64-4159-b0a8-3c86f8b4066b}, !- Construction Name
  {63640f13-0cca-4adb-a9bf-d5a5db2a5530}, !- Space Name
  Surface,                                !- Outside Boundary Condition
  {f191b6a3-c845-4f0e-9153-338ea20292e8}, !- Outside Boundary Condition Object
  NoSun,                                  !- Sun Exposure
  NoWind,                                 !- Wind Exposure
  ,                                       !- View Factor to Ground
  ,                                       !- Number of Vertices
  0, 0, 4,                                !- X,Y,Z Vertex 1 {m}
  0, 0, 0,                                !- X,Y,Z Vertex 2 {m}
  3, -3, 0,                               !- X,Y,Z Vertex 3 {m}
  3, -3, 4;                               !- X,Y,Z Vertex 4 {m}

OS:Surface,
  {60a18b41-fda3-479c-bf26-f6213612ec9c}, !- Handle
  Surface 16,                             !- Name
  Wall,                                   !- Surface Type
  {567c9127-7b64-4159-b0a8-3c86f8b4066b}, !- Construction Name
  {63640f13-0cca-4adb-a9bf-d5a5db2a5530}, !- Space Name
  Surface,                                !- Outside Boundary Condition
  {d35ae68b-1e90-475e-93b6-66cd3989ab75}, !- Outside Boundary Condition Object
  NoSun,                                  !- Sun Exposure
  NoWind,                                 !- Wind Exposure
  ,                                       !- View Factor to Ground
  ,                                       !- Number of Vertices
  0, 44, 4,                               !- X,Y,Z Vertex 1 {m}
  0, 44, 0,                               !- X,Y,Z Vertex 2 {m}
  0, 0, 0,                                !- X,Y,Z Vertex 3 {m}
  0, 0, 4;                                !- X,Y,Z Vertex 4 {m}

OS:Surface,
  {c7411548-93ee-48cd-938d-32e417534c98}, !- Handle
  Surface 17,                             !- Name
  Wall,                                   !- Surface Type
  {567c9127-7b64-4159-b0a8-3c86f8b4066b}, !- Construction Name
  {63640f13-0cca-4adb-a9bf-d5a5db2a5530}, !- Space Name
  Surface,                                !- Outside Boundary Condition
  {47db6c5f-7ce2-4acd-a250-21ae03f38606}, !- Outside Boundary Condition Object
  NoSun,                                  !- Sun Exposure
  NoWind,                                 !- Wind Exposure
  ,                                       !- View Factor to Ground
  ,                                       !- Number of Vertices
  3, 47, 4,                               !- X,Y,Z Vertex 1 {m}
  3, 47, 0,                               !- X,Y,Z Vertex 2 {m}
  0, 44, 0,                               !- X,Y,Z Vertex 3 {m}
  0, 44, 4;                               !- X,Y,Z Vertex 4 {m}

OS:Surface,
  {2bb40e0a-8856-4931-a8ce-9aa6baaed865}, !- Handle
  Surface 18,                             !- Name
  RoofCeiling,                            !- Surface Type
  {eae8fc43-c074-43cf-a019-653aa70f44f8}, !- Construction Name
  {63640f13-0cca-4adb-a9bf-d5a5db2a5530}, !- Space Name
  Surface,                                !- Outside Boundary Condition
  {231a7185-d8b5-4e32-889e-8d1d9df22bec}, !- Outside Boundary Condition Object
  NoSun,                                  !- Sun Exposure
  NoWind,                                 !- Wind Exposure
  ,                                       !- View Factor to Ground
  ,                                       !- Number of Vertices
  0, 44, 4,                               !- X,Y,Z Vertex 1 {m}
  0, 0, 4,                                !- X,Y,Z Vertex 2 {m}
  3, -3, 4,                               !- X,Y,Z Vertex 3 {m}
  3, 47, 4;                               !- X,Y,Z Vertex 4 {m}

OS:Space,
  {8c655d59-a917-4f23-96c0-66218f4ece84}, !- Handle
  Story 1 South Perimeter Space,          !- Name
  ,                                       !- Space Type Name
  ,                                       !- Default Construction Set Name
  ,                                       !- Default Schedule Set Name
  -0,                                     !- Direction of Relative North {deg}
  0,                                      !- X Origin {m}
  0,                                      !- Y Origin {m}
  0,                                      !- Z Origin {m}
  {ee3b68ff-92f1-4f4d-b3ba-51c781d043a2}, !- Building Story Name
  {eb6d02fd-ce79-4382-98af-c547006d095a}; !- Thermal Zone Name

OS:Surface,
  {b8ba2a88-163f-464b-af21-3e43023e6ca9}, !- Handle
  Surface 19,                             !- Name
  Floor,                                  !- Surface Type
  {db273564-a0de-4979-bd14-462e054691ec}, !- Construction Name
  {8c655d59-a917-4f23-96c0-66218f4ece84}, !- Space Name
  OtherSideCoefficients,                  !- Outside Boundary Condition
  {ead28471-c996-433c-b725-4993a3eaddf5}, !- Outside Boundary Condition Object
  NoSun,                                  !- Sun Exposure
  NoWind,                                 !- Wind Exposure
  ,                                       !- View Factor to Ground
  ,                                       !- Number of Vertices
  100, 0, 0,                              !- X,Y,Z Vertex 1 {m}
  0, 0, 0,                                !- X,Y,Z Vertex 2 {m}
  3, 3, 0,                                !- X,Y,Z Vertex 3 {m}
  97, 3, 0;                               !- X,Y,Z Vertex 4 {m}

OS:Surface,
  {bc0a92cd-5aee-43ff-9087-f4d947102a1b}, !- Handle
  Surface 20,                             !- Name
  Wall,                                   !- Surface Type
  {5d89f431-efbe-4a55-a1a0-e2202da85aa6}, !- Construction Name
  {8c655d59-a917-4f23-96c0-66218f4ece84}, !- Space Name
  Outdoors,                               !- Outside Boundary Condition
  ,                                       !- Outside Boundary Condition Object
  SunExposed,                             !- Sun Exposure
  WindExposed,                            !- Wind Exposure
  ,                                       !- View Factor to Ground
  ,                                       !- Number of Vertices
  0, 0, 4,                                !- X,Y,Z Vertex 1 {m}
  0, 0, 0,                                !- X,Y,Z Vertex 2 {m}
  100, 0, 0,                              !- X,Y,Z Vertex 3 {m}
  100, 0, 4;                              !- X,Y,Z Vertex 4 {m}

OS:Surface,
  {c856adfa-54d0-4822-9eac-318ae32e434a}, !- Handle
  Surface 21,                             !- Name
  Wall,                                   !- Surface Type
  {567c9127-7b64-4159-b0a8-3c86f8b4066b}, !- Construction Name
  {8c655d59-a917-4f23-96c0-66218f4ece84}, !- Space Name
  Surface,                                !- Outside Boundary Condition
  {102c4d8e-7c99-4642-8bf2-c7055c0c1e34}, !- Outside Boundary Condition Object
  NoSun,                                  !- Sun Exposure
  NoWind,                                 !- Wind Exposure
  ,                                       !- View Factor to Ground
  ,                                       !- Number of Vertices
  3, 3, 4,                                !- X,Y,Z Vertex 1 {m}
  3, 3, 0,                                !- X,Y,Z Vertex 2 {m}
  0, 0, 0,                                !- X,Y,Z Vertex 3 {m}
  0, 0, 4;                                !- X,Y,Z Vertex 4 {m}

OS:Surface,
  {134a1cd2-2120-4151-bab8-f590a4529fa0}, !- Handle
  Surface 22,                             !- Name
  Wall,                                   !- Surface Type
  {567c9127-7b64-4159-b0a8-3c86f8b4066b}, !- Construction Name
  {8c655d59-a917-4f23-96c0-66218f4ece84}, !- Space Name
  Surface,                                !- Outside Boundary Condition
  {1ffe0a3c-6546-4069-b5aa-4374d9537690}, !- Outside Boundary Condition Object
  NoSun,                                  !- Sun Exposure
  NoWind,                                 !- Wind Exposure
  ,                                       !- View Factor to Ground
  ,                                       !- Number of Vertices
  97, 3, 4,                               !- X,Y,Z Vertex 1 {m}
  97, 3, 0,                               !- X,Y,Z Vertex 2 {m}
  3, 3, 0,                                !- X,Y,Z Vertex 3 {m}
  3, 3, 4;                                !- X,Y,Z Vertex 4 {m}

OS:Surface,
  {f191b6a3-c845-4f0e-9153-338ea20292e8}, !- Handle
  Surface 23,                             !- Name
  Wall,                                   !- Surface Type
  {567c9127-7b64-4159-b0a8-3c86f8b4066b}, !- Construction Name
  {8c655d59-a917-4f23-96c0-66218f4ece84}, !- Space Name
  Surface,                                !- Outside Boundary Condition
  {9533f7bf-a312-4693-b1ed-0339e216a4a9}, !- Outside Boundary Condition Object
  NoSun,                                  !- Sun Exposure
  NoWind,                                 !- Wind Exposure
  ,                                       !- View Factor to Ground
  ,                                       !- Number of Vertices
  100, 0, 4,                              !- X,Y,Z Vertex 1 {m}
  100, 0, 0,                              !- X,Y,Z Vertex 2 {m}
  97, 3, 0,                               !- X,Y,Z Vertex 3 {m}
  97, 3, 4;                               !- X,Y,Z Vertex 4 {m}

OS:Surface,
  {d1cbd7ea-680d-4a0b-9d00-e181aba8346f}, !- Handle
  Surface 24,                             !- Name
  RoofCeiling,                            !- Surface Type
  {eae8fc43-c074-43cf-a019-653aa70f44f8}, !- Construction Name
  {8c655d59-a917-4f23-96c0-66218f4ece84}, !- Space Name
  Surface,                                !- Outside Boundary Condition
  {a31192cc-09e3-4321-8be8-755ae0ea9641}, !- Outside Boundary Condition Object
  NoSun,                                  !- Sun Exposure
  NoWind,                                 !- Wind Exposure
  ,                                       !- View Factor to Ground
  ,                                       !- Number of Vertices
  97, 3, 4,                               !- X,Y,Z Vertex 1 {m}
  3, 3, 4,                                !- X,Y,Z Vertex 2 {m}
  0, 0, 4,                                !- X,Y,Z Vertex 3 {m}
  100, 0, 4;                              !- X,Y,Z Vertex 4 {m}

OS:Space,
  {fa7c2bc9-f649-4d25-9c81-b8b9ddcc5958}, !- Handle
  Story 1 Core Space,                     !- Name
  ,                                       !- Space Type Name
  ,                                       !- Default Construction Set Name
  ,                                       !- Default Schedule Set Name
  -0,                                     !- Direction of Relative North {deg}
  3,                                      !- X Origin {m}
  3,                                      !- Y Origin {m}
  0,                                      !- Z Origin {m}
  {ee3b68ff-92f1-4f4d-b3ba-51c781d043a2}, !- Building Story Name
  {b7d8b1cb-147b-4386-ab94-6ec035156c60}; !- Thermal Zone Name

OS:Surface,
  {cc36fe23-3ae8-43d4-8f3f-a4ba8ad78c07}, !- Handle
  Surface 25,                             !- Name
  Floor,                                  !- Surface Type
  {db273564-a0de-4979-bd14-462e054691ec}, !- Construction Name
  {fa7c2bc9-f649-4d25-9c81-b8b9ddcc5958}, !- Space Name
  OtherSideCoefficients,                  !- Outside Boundary Condition
  {ead28471-c996-433c-b725-4993a3eaddf5}, !- Outside Boundary Condition Object
  NoSun,                                  !- Sun Exposure
  NoWind,                                 !- Wind Exposure
  ,                                       !- View Factor to Ground
  ,                                       !- Number of Vertices
  0, 0, 0,                                !- X,Y,Z Vertex 1 {m}
  0, 44, 0,                               !- X,Y,Z Vertex 2 {m}
  94, 44, 0,                              !- X,Y,Z Vertex 3 {m}
  94, 0, 0;                               !- X,Y,Z Vertex 4 {m}

OS:Surface,
  {d17a15c2-d5ef-49e3-83f5-669e9b884e93}, !- Handle
  Surface 26,                             !- Name
  Wall,                                   !- Surface Type
  {567c9127-7b64-4159-b0a8-3c86f8b4066b}, !- Construction Name
  {fa7c2bc9-f649-4d25-9c81-b8b9ddcc5958}, !- Space Name
  Surface,                                !- Outside Boundary Condition
  {e95f54dd-2792-4e98-a6d3-76b0b9ffc5ec}, !- Outside Boundary Condition Object
  NoSun,                                  !- Sun Exposure
  NoWind,                                 !- Wind Exposure
  ,                                       !- View Factor to Ground
  ,                                       !- Number of Vertices
  0, 44, 4,                               !- X,Y,Z Vertex 1 {m}
  0, 44, 0,                               !- X,Y,Z Vertex 2 {m}
  0, 0, 0,                                !- X,Y,Z Vertex 3 {m}
  0, 0, 4;                                !- X,Y,Z Vertex 4 {m}

OS:Surface,
  {d4e3579f-0cdd-4d7b-9bb9-b4c472530121}, !- Handle
  Surface 27,                             !- Name
  Wall,                                   !- Surface Type
  {567c9127-7b64-4159-b0a8-3c86f8b4066b}, !- Construction Name
  {fa7c2bc9-f649-4d25-9c81-b8b9ddcc5958}, !- Space Name
  Surface,                                !- Outside Boundary Condition
  {cdcf9e15-ca5d-4c3d-b977-106da9d92cf0}, !- Outside Boundary Condition Object
  NoSun,                                  !- Sun Exposure
  NoWind,                                 !- Wind Exposure
  ,                                       !- View Factor to Ground
  ,                                       !- Number of Vertices
  94, 44, 4,                              !- X,Y,Z Vertex 1 {m}
  94, 44, 0,                              !- X,Y,Z Vertex 2 {m}
  0, 44, 0,                               !- X,Y,Z Vertex 3 {m}
  0, 44, 4;                               !- X,Y,Z Vertex 4 {m}

OS:Surface,
  {d35ae68b-1e90-475e-93b6-66cd3989ab75}, !- Handle
  Surface 28,                             !- Name
  Wall,                                   !- Surface Type
  {567c9127-7b64-4159-b0a8-3c86f8b4066b}, !- Construction Name
  {fa7c2bc9-f649-4d25-9c81-b8b9ddcc5958}, !- Space Name