
OS:Version,
  {17306046-f8b3-4a04-8b7b-fbe04d257073}, !- Handle
  2.8.1;                                  !- Version Identifier

OS:BuildingStory,
  {82489652-224b-4edf-ba5d-cce29ccb5201}, !- Handle
  Story 1,                                !- Name
  0,                                      !- Nominal Z Coordinate {m}
  3,                                      !- Nominal Floor to Floor Height {m}
  ,                                       !- Default Construction Set Name
  ,                                       !- Default Schedule Set Name
  ;                                       !- Group Rendering Name

OS:Space,
  {0b6842eb-1b2b-44b5-b554-c4a1e3cf507c}, !- Handle
  Story 1 West Perimeter Space,           !- Name
  ,                                       !- Space Type Name
  ,                                       !- Default Construction Set Name
  ,                                       !- Default Schedule Set Name
  -0,                                     !- Direction of Relative North {deg}
  0,                                      !- X Origin {m}
  0,                                      !- Y Origin {m}
  0,                                      !- Z Origin {m}
  {82489652-224b-4edf-ba5d-cce29ccb5201}, !- Building Story Name
  {0c4ed7be-311f-40a4-ab0d-f2a830acb05e}; !- Thermal Zone Name

OS:Surface,
  {a7111854-00b1-4dfa-ab91-d082ebdd2809}, !- Handle
  Surface 1,                              !- Name
  Floor,                                  !- Surface Type
  ,                                       !- Construction Name
  {0b6842eb-1b2b-44b5-b554-c4a1e3cf507c}, !- Space Name
  Ground,                                 !- Outside Boundary Condition
  ,                                       !- Outside Boundary Condition Object
  NoSun,                                  !- Sun Exposure
  NoWind,                                 !- Wind Exposure
  ,                                       !- View Factor to Ground
  ,                                       !- Number of Vertices
  0, 0, 0,                                !- X,Y,Z Vertex 1 {m}
  0, 50, 0,                               !- X,Y,Z Vertex 2 {m}
  3, 47, 0,                               !- X,Y,Z Vertex 3 {m}
  3, 3, 0;                                !- X,Y,Z Vertex 4 {m}

OS:Surface,
  {e6317499-2c8e-4118-b0e2-7abb922a76e0}, !- Handle
  Surface 2,                              !- Name
  Wall,                                   !- Surface Type
  ,                                       !- Construction Name
  {0b6842eb-1b2b-44b5-b554-c4a1e3cf507c}, !- Space Name
  Outdoors,                               !- Outside Boundary Condition
  ,                                       !- Outside Boundary Condition Object
  SunExposed,                             !- Sun Exposure
  WindExposed,                            !- Wind Exposure
  ,                                       !- View Factor to Ground
  ,                                       !- Number of Vertices
  0, 50, 3,                               !- X,Y,Z Vertex 1 {m}
  0, 50, 0,                               !- X,Y,Z Vertex 2 {m}
  0, 0, 0,                                !- X,Y,Z Vertex 3 {m}
  0, 0, 3;                                !- X,Y,Z Vertex 4 {m}

OS:Surface,
  {cb0ba246-cd1b-4b95-ab95-5eb66f6d03a9}, !- Handle
  Surface 3,                              !- Name
  Wall,                                   !- Surface Type
  ,                                       !- Construction Name
  {0b6842eb-1b2b-44b5-b554-c4a1e3cf507c}, !- Space Name
  Surface,                                !- Outside Boundary Condition
  {f27618a9-b577-44bc-b5fa-339cf7d9df9c}, !- Outside Boundary Condition Object
  NoSun,                                  !- Sun Exposure
  NoWind,                                 !- Wind Exposure
  ,                                       !- View Factor to Ground
  ,                                       !- Number of Vertices
  3, 47, 3,                               !- X,Y,Z Vertex 1 {m}
  3, 47, 0,                               !- X,Y,Z Vertex 2 {m}
  0, 50, 0,                               !- X,Y,Z Vertex 3 {m}
  0, 50, 3;                               !- X,Y,Z Vertex 4 {m}

OS:Surface,
  {f419458c-f2c2-444b-85d6-4f4f3ced3326}, !- Handle
  Surface 4,                              !- Name
  Wall,                                   !- Surface Type
  ,                                       !- Construction Name
  {0b6842eb-1b2b-44b5-b554-c4a1e3cf507c}, !- Space Name
  Surface,                                !- Outside Boundary Condition
  {9861e7af-eedd-4c68-b498-2463e467ad47}, !- Outside Boundary Condition Object
  NoSun,                                  !- Sun Exposure
  NoWind,                                 !- Wind Exposure
  ,                                       !- View Factor to Ground
  ,                                       !- Number of Vertices
  3, 3, 3,                                !- X,Y,Z Vertex 1 {m}
  3, 3, 0,                                !- X,Y,Z Vertex 2 {m}
  3, 47, 0,                               !- X,Y,Z Vertex 3 {m}
  3, 47, 3;                               !- X,Y,Z Vertex 4 {m}

OS:Surface,
  {a2ef5e1b-3ea5-4164-8659-82eee264854d}, !- Handle
  Surface 5,                              !- Name
  Wall,                                   !- Surface Type
  ,                                       !- Construction Name
  {0b6842eb-1b2b-44b5-b554-c4a1e3cf507c}, !- Space Name
  Surface,                                !- Outside Boundary Condition
  {c369793a-7a83-429b-8fe0-2c409c2f360b}, !- Outside Boundary Condition Object
  NoSun,                                  !- Sun Exposure
  NoWind,                                 !- Wind Exposure
  ,                                       !- View Factor to Ground
  ,                                       !- Number of Vertices
  0, 0, 3,                                !- X,Y,Z Vertex 1 {m}
  0, 0, 0,                                !- X,Y,Z Vertex 2 {m}
  3, 3, 0,                                !- X,Y,Z Vertex 3 {m}
  3, 3, 3;                                !- X,Y,Z Vertex 4 {m}

OS:Surface,
  {3b5646a4-e120-4c76-b170-902518332538}, !- Handle
  Surface 6,                              !- Name
  RoofCeiling,                            !- Surface Type
  ,                                       !- Construction Name
  {0b6842eb-1b2b-44b5-b554-c4a1e3cf507c}, !- Space Name
  Outdoors,                               !- Outside Boundary Condition
  ,                                       !- Outside Boundary Condition Object
  SunExposed,                             !- Sun Exposure
  WindExposed,                            !- Wind Exposure
  ,                                       !- View Factor to Ground
  ,                                       !- Number of Vertices
  3, 3, 3,                                !- X,Y,Z Vertex 1 {m}
  3, 47, 3,                               !- X,Y,Z Vertex 2 {m}
  0, 50, 3,                               !- X,Y,Z Vertex 3 {m}
  0, 0, 3;                                !- X,Y,Z Vertex 4 {m}

OS:Space,
  {8f0e5144-b44d-4c72-886e-12d2ed6fc0ad}, !- Handle
  Story 1 North Perimeter Space,          !- Name
  ,                                       !- Space Type Name
  ,                                       !- Default Construction Set Name
  ,                                       !- Default Schedule Set Name
  -0,                                     !- Direction of Relative North {deg}
  3,                                      !- X Origin {m}
  47,                                     !- Y Origin {m}
  0,                                      !- Z Origin {m}
  {82489652-224b-4edf-ba5d-cce29ccb5201}, !- Building Story Name
  {b51b9e7b-dfa5-4def-8eb1-4a9f2f66b130}; !- Thermal Zone Name

OS:Surface,
  {7522ed05-59e1-4127-9f0d-692b5b9f7276}, !- Handle
  Surface 7,                              !- Name
  Floor,                                  !- Surface Type
  ,                                       !- Construction Name
  {8f0e5144-b44d-4c72-886e-12d2ed6fc0ad}, !- Space Name
  Ground,                                 !- Outside Boundary Condition
  ,                                       !- Outside Boundary Condition Object
  NoSun,                                  !- Sun Exposure
  NoWind,                                 !- Wind Exposure
  ,                                       !- View Factor to Ground
  ,                                       !- Number of Vertices
  -3, 3, 0,                               !- X,Y,Z Vertex 1 {m}
  97, 3, 0,                               !- X,Y,Z Vertex 2 {m}
  94, 0, 0,                               !- X,Y,Z Vertex 3 {m}
  0, 0, 0;                                !- X,Y,Z Vertex 4 {m}

OS:Surface,
  {a709575d-8a8a-4d48-99c6-a1d0690850d1}, !- Handle
  Surface 8,                              !- Name
  Wall,                                   !- Surface Type
  ,                                       !- Construction Name
  {8f0e5144-b44d-4c72-886e-12d2ed6fc0ad}, !- Space Name
  Outdoors,                               !- Outside Boundary Condition
  ,                                       !- Outside Boundary Condition Object
  SunExposed,                             !- Sun Exposure
  WindExposed,                            !- Wind Exposure
  ,                                       !- View Factor to Ground
  ,                                       !- Number of Vertices
  97, 3, 3,                               !- X,Y,Z Vertex 1 {m}
  97, 3, 0,                               !- X,Y,Z Vertex 2 {m}
  -3, 3, 0,                               !- X,Y,Z Vertex 3 {m}
  -3, 3, 3;                               !- X,Y,Z Vertex 4 {m}

OS:Surface,
  {6be8e09f-0fa6-4ce2-b208-56c3aedead2c}, !- Handle
  Surface 9,                              !- Name
  Wall,                                   !- Surface Type
  ,                                       !- Construction Name
  {8f0e5144-b44d-4c72-886e-12d2ed6fc0ad}, !- Space Name
  Surface,                                !- Outside Boundary Condition
  {df85a4b0-d6ab-4bc7-8a0b-194e415aca7b}, !- Outside Boundary Condition Object
  NoSun,                                  !- Sun Exposure
  NoWind,                                 !- Wind Exposure
  ,                                       !- View Factor to Ground
  ,                                       !- Number of Vertices
  94, 0, 3,                               !- X,Y,Z Vertex 1 {m}
  94, 0, 0,                               !- X,Y,Z Vertex 2 {m}
  97, 3, 0,                               !- X,Y,Z Vertex 3 {m}
  97, 3, 3;                               !- X,Y,Z Vertex 4 {m}

OS:Surface,
  {856bb43c-5c84-47b6-8e81-4c480bb15554}, !- Handle
  Surface 10,                             !- Name
  Wall,                                   !- Surface Type
  ,                                       !- Construction Name
  {8f0e5144-b44d-4c72-886e-12d2ed6fc0ad}, !- Space Name
  Surface,                                !- Outside Boundary Condition
  {eea32c18-7dca-4710-82b4-d2321adaf602}, !- Outside Boundary Condition Object
  NoSun,                                  !- Sun Exposure
  NoWind,                                 !- Wind Exposure
  ,                                       !- View Factor to Ground
  ,                                       !- Number of Vertices
  0, 0, 3,                                !- X,Y,Z Vertex 1 {m}
  0, 0, 0,                                !- X,Y,Z Vertex 2 {m}
  94, 0, 0,                               !- X,Y,Z Vertex 3 {m}
  94, 0, 3;                               !- X,Y,Z Vertex 4 {m}

OS:Surface,
  {f27618a9-b577-44bc-b5fa-339cf7d9df9c}, !- Handle
  Surface 11,                             !- Name
  Wall,                                   !- Surface Type
  ,                                       !- Construction Name
  {8f0e5144-b44d-4c72-886e-12d2ed6fc0ad}, !- Space Name
  Surface,                                !- Outside Boundary Condition
  {cb0ba246-cd1b-4b95-ab95-5eb66f6d03a9}, !- Outside Boundary Condition Object
  NoSun,                                  !- Sun Exposure
  NoWind,                                 !- Wind Exposure
  ,                                       !- View Factor to Ground
  ,                                       !- Number of Vertices
  -3, 3, 3,                               !- X,Y,Z Vertex 1 {m}
  -3, 3, 0,                               !- X,Y,Z Vertex 2 {m}
  0, 0, 0,                                !- X,Y,Z Vertex 3 {m}
  0, 0, 3;                                !- X,Y,Z Vertex 4 {m}

OS:Surface,
  {6dc529b2-bbeb-425b-900c-46f81741af60}, !- Handle
  Surface 12,                             !- Name
  RoofCeiling,                            !- Surface Type
  ,                                       !- Construction Name
  {8f0e5144-b44d-4c72-886e-12d2ed6fc0ad}, !- Space Name
  Outdoors,                               !- Outside Boundary Condition
  ,                                       !- Outside Boundary Condition Object
  SunExposed,                             !- Sun Exposure
  WindExposed,                            !- Wind Exposure
  ,                                       !- View Factor to Ground
  ,                                       !- Number of Vertices
  0, 0, 3,                                !- X,Y,Z Vertex 1 {m}
  94, 0, 3,                               !- X,Y,Z Vertex 2 {m}
  97, 3, 3,                               !- X,Y,Z Vertex 3 {m}
  -3, 3, 3;                               !- X,Y,Z Vertex 4 {m}

OS:Space,
  {b1ad5262-237b-4b7c-8231-382f81c79929}, !- Handle
  Story 1 East Perimeter Space,           !- Name
  ,                                       !- Space Type Name
  ,                                       !- Default Construction Set Name
  ,                                       !- Default Schedule Set Name
  -0,                                     !- Direction of Relative North {deg}
  97,                                     !- X Origin {m}
  3,                                      !- Y Origin {m}
  0,                                      !- Z Origin {m}
  {82489652-224b-4edf-ba5d-cce29ccb5201}, !- Building Story Name
  {37eeeb39-cc94-4318-8d55-364c75b71417}; !- Thermal Zone Name

OS:Surface,
  {7939546e-792b-4fe9-b2fc-5f271eb15eae}, !- Handle
  Surface 13,                             !- Name
  Floor,                                  !- Surface Type
  ,                                       !- Construction Name
  {b1ad5262-237b-4b7c-8231-382f81c79929}, !- Space Name
  Ground,                                 !- Outside Boundary Condition
  ,                                       !- Outside Boundary Condition Object
  NoSun,                                  !- Sun Exposure
  NoWind,                                 !- Wind Exposure
  ,                                       !- View Factor to Ground
  ,                                       !- Number of Vertices
  3, 47, 0,                               !- X,Y,Z Vertex 1 {m}
  3, -3, 0,                               !- X,Y,Z Vertex 2 {m}
  0, 0, 0,                                !- X,Y,Z Vertex 3 {m}
  0, 44, 0;                               !- X,Y,Z Vertex 4 {m}

OS:Surface,
  {f3ea0e21-d8a0-4940-a825-49bb892e8009}, !- Handle
  Surface 14,                             !- Name
  Wall,                                   !- Surface Type
  ,                                       !- Construction Name
  {b1ad5262-237b-4b7c-8231-382f81c79929}, !- Space Name
  Outdoors,                               !- Outside Boundary Condition
  ,                                       !- Outside Boundary Condition Object
  SunExposed,                             !- Sun Exposure
  WindExposed,                            !- Wind Exposure
  ,                                       !- View Factor to Ground
  ,                                       !- Number of Vertices
  3, -3, 3,                               !- X,Y,Z Vertex 1 {m}
  3, -3, 0,                               !- X,Y,Z Vertex 2 {m}
  3, 47, 0,                               !- X,Y,Z Vertex 3 {m}
  3, 47, 3;                               !- X,Y,Z Vertex 4 {m}

OS:Surface,
  {da5556b0-cd08-484e-b371-a7f0574fc91b}, !- Handle
  Surface 15,                             !- Name
  Wall,                                   !- Surface Type
  ,                                       !- Construction Name
  {b1ad5262-237b-4b7c-8231-382f81c79929}, !- Space Name
  Surface,                                !- Outside Boundary Condition
  {c6875a57-8ba3-46c9-96b5-3da34abeb0d4}, !- Outside Boundary Condition Object
  NoSun,                                  !- Sun Exposure
  NoWind,                                 !- Wind Exposure
  ,                                       !- View Factor to Ground
  ,                                       !- Number of Vertices
  0, 0, 3,                                !- X,Y,Z Vertex 1 {m}
  0, 0, 0,                                !- X,Y,Z Vertex 2 {m}
  3, -3, 0,                               !- X,Y,Z Vertex 3 {m}
  3, -3, 3;                               !- X,Y,Z Vertex 4 {m}

OS:Surface,
  {8e291a3a-adbe-4d5a-9d5e-e2c5af65fd3a}, !- Handle
  Surface 16,                             !- Name
  Wall,                                   !- Surface Type
  ,                                       !- Construction Name
  {b1ad5262-237b-4b7c-8231-382f81c79929}, !- Space Name
  Surface,                                !- Outside Boundary Condition
  {eb2682b4-70ac-4f63-b3a2-f82be7fd2265}, !- Outside Boundary Condition Object
  NoSun,                                  !- Sun Exposure
  NoWind,                                 !- Wind Exposure
  ,                                       !- View Factor to Ground
  ,                                       !- Number of Vertices
  0, 44, 3,                               !- X,Y,Z Vertex 1 {m}
  0, 44, 0,                               !- X,Y,Z Vertex 2 {m}
  0, 0, 0,                                !- X,Y,Z Vertex 3 {m}
  0, 0, 3;                                !- X,Y,Z Vertex 4 {m}

OS:Surface,
  {df85a4b0-d6ab-4bc7-8a0b-194e415aca7b}, !- Handle
  Surface 17,                             !- Name
  Wall,                                   !- Surface Type
  ,                                       !- Construction Name
  {b1ad5262-237b-4b7c-8231-382f81c79929}, !- Space Name
  Surface,                                !- Outside Boundary Condition
  {6be8e09f-0fa6-4ce2-b208-56c3aedead2c}, !- Outside Boundary Condition Object
  NoSun,                                  !- Sun Exposure
  NoWind,                                 !- Wind Exposure
  ,                                       !- View Factor to Ground
  ,                                       !- Number of Vertices
  3, 47, 3,                               !- X,Y,Z Vertex 1 {m}
  3, 47, 0,                               !- X,Y,Z Vertex 2 {m}
  0, 44, 0,                               !- X,Y,Z Vertex 3 {m}
  0, 44, 3;                               !- X,Y,Z Vertex 4 {m}

OS:Surface,
  {a23319f8-ce8b-466a-9c0a-3239c1021cae}, !- Handle
  Surface 18,                             !- Name
  RoofCeiling,                            !- Surface Type
  ,                                       !- Construction Name
  {b1ad5262-237b-4b7c-8231-382f81c79929}, !- Space Name
  Outdoors,                               !- Outside Boundary Condition
  ,                                       !- Outside Boundary Condition Object
  SunExposed,                             !- Sun Exposure
  WindExposed,                            !- Wind Exposure
  ,                                       !- View Factor to Ground
  ,                                       !- Number of Vertices
  0, 44, 3,                               !- X,Y,Z Vertex 1 {m}
  0, 0, 3,                                !- X,Y,Z Vertex 2 {m}
  3, -3, 3,                               !- X,Y,Z Vertex 3 {m}
  3, 47, 3;                               !- X,Y,Z Vertex 4 {m}

OS:Space,
  {7409dc65-e25d-4fd1-a428-44101a0339e7}, !- Handle
  Story 1 South Perimeter Space,          !- Name
  ,                                       !- Space Type Name
  ,                                       !- Default Construction Set Name
  ,                                       !- Default Schedule Set Name
  -0,                                     !- Direction of Relative North {deg}
  0,                                      !- X Origin {m}
  0,                                      !- Y Origin {m}
  0,                                      !- Z Origin {m}
  {82489652-224b-4edf-ba5d-cce29ccb5201}, !- Building Story Name
  {da2cae75-dfca-46c0-a68c-ccad523c0358}; !- Thermal Zone Name

OS:Surface,
  {abca4cf1-58f0-4d14-8f6c-70fb5eb9ef5c}, !- Handle
  Surface 19,                             !- Name
  Floor,                                  !- Surface Type
  ,                                       !- Construction Name
  {7409dc65-e25d-4fd1-a428-44101a0339e7}, !- Space Name
  Ground,                                 !- Outside Boundary Condition
  ,                                       !- Outside Boundary Condition Object
  NoSun,                                  !- Sun Exposure
  NoWind,                                 !- Wind Exposure
  ,                                       !- View Factor to Ground
  ,                                       !- Number of Vertices
  100, 0, 0,                              !- X,Y,Z Vertex 1 {m}
  0, 0, 0,                                !- X,Y,Z Vertex 2 {m}
  3, 3, 0,                                !- X,Y,Z Vertex 3 {m}
  97, 3, 0;                               !- X,Y,Z Vertex 4 {m}

OS:Surface,
  {50dc1bb0-c297-484a-a1bd-3bf59bc2220c}, !- Handle
  Surface 20,                             !- Name
  Wall,                                   !- Surface Type
  ,                                       !- Construction Name
  {7409dc65-e25d-4fd1-a428-44101a0339e7}, !- Space Name
  Outdoors,                               !- Outside Boundary Condition
  ,                                       !- Outside Boundary Condition Object
  SunExposed,                             !- Sun Exposure
  WindExposed,                            !- Wind Exposure
  ,                                       !- View Factor to Ground
  ,                                       !- Number of Vertices
  0, 0, 3,                                !- X,Y,Z Vertex 1 {m}
  0, 0, 0,                                !- X,Y,Z Vertex 2 {m}
  100, 0, 0,                              !- X,Y,Z Vertex 3 {m}
  100, 0, 3;                              !- X,Y,Z Vertex 4 {m}

OS:Surface,
  {c369793a-7a83-429b-8fe0-2c409c2f360b}, !- Handle
  Surface 21,                             !- Name
  Wall,                                   !- Surface Type
  ,                                       !- Construction Name
  {7409dc65-e25d-4fd1-a428-44101a0339e7}, !- Space Name
  Surface,                                !- Outside Boundary Condition
  {a2ef5e1b-3ea5-4164-8659-82eee264854d}, !- Outside Boundary Condition Object
  NoSun,                                  !- Sun Exposure
  NoWind,                                 !- Wind Exposure
  ,                                       !- View Factor to Ground
  ,                                       !- Number of Vertices
  3, 3, 3,                                !- X,Y,Z Vertex 1 {m}
  3, 3, 0,                                !- X,Y,Z Vertex 2 {m}
  0, 0, 0,                                !- X,Y,Z Vertex 3 {m}
  0, 0, 3;                                !- X,Y,Z Vertex 4 {m}

OS:Surface,
  {51e15797-938f-43ca-9faa-5a69777c5bd9}, !- Handle
  Surface 22,                             !- Name
  Wall,                                   !- Surface Type
  ,                                       !- Construction Name
  {7409dc65-e25d-4fd1-a428-44101a0339e7}, !- Space Name
  Surface,                                !- Outside Boundary Condition
  {8f5c363e-e48a-4d0a-b73a-19b339196200}, !- Outside Boundary Condition Object
  NoSun,                                  !- Sun Exposure
  NoWind,                                 !- Wind Exposure
  ,                                       !- View Factor to Ground
  ,                                       !- Number of Vertices
  97, 3, 3,                               !- X,Y,Z Vertex 1 {m}
  97, 3, 0,                               !- X,Y,Z Vertex 2 {m}
  3, 3, 0,                                !- X,Y,Z Vertex 3 {m}
  3, 3, 3;                                !- X,Y,Z Vertex 4 {m}

OS:Surface,
  {c6875a57-8ba3-46c9-96b5-3da34abeb0d4}, !- Handle
  Surface 23,                             !- Name
  Wall,                                   !- Surface Type
  ,                                       !- Construction Name
  {7409dc65-e25d-4fd1-a428-44101a0339e7}, !- Space Name
  Surface,                                !- Outside Boundary Condition
  {da5556b0-cd08-484e-b371-a7f0574fc91b}, !- Outside Boundary Condition Object
  NoSun,                                  !- Sun Exposure
  NoWind,                                 !- Wind Exposure
  ,                                       !- View Factor to Ground
  ,                                       !- Number of Vertices
  100, 0, 3,                              !- X,Y,Z Vertex 1 {m}
  100, 0, 0,                              !- X,Y,Z Vertex 2 {m}
  97, 3, 0,                               !- X,Y,Z Vertex 3 {m}
  97, 3, 3;                               !- X,Y,Z Vertex 4 {m}

OS:Surface,
  {16034510-a25c-4307-9e5f-65d9da5706d8}, !- Handle
  Surface 24,                             !- Name
  RoofCeiling,                            !- Surface Type
  ,                                       !- Construction Name
  {7409dc65-e25d-4fd1-a428-44101a0339e7}, !- Space Name
  Outdoors,                               !- Outside Boundary Condition
  ,                                       !- Outside Boundary Condition Object
  SunExposed,                             !- Sun Exposure
  WindExposed,                            !- Wind Exposure
  ,                                       !- View Factor to Ground
  ,                                       !- Number of Vertices
  97, 3, 3,                               !- X,Y,Z Vertex 1 {m}
  3, 3, 3,                                !- X,Y,Z Vertex 2 {m}
  0, 0, 3,                                !- X,Y,Z Vertex 3 {m}
  100, 0, 3;                              !- X,Y,Z Vertex 4 {m}

OS:Space,
  {ad10392b-253a-46c6-aaab-1675e7b473c7}, !- Handle
  Story 1 Core Space,                     !- Name
  ,                                       !- Space Type Name
  ,                                       !- Default Construction Set Name
  ,                                       !- Default Schedule Set Name
  -0,                                     !- Direction of Relative North {deg}
  3,                                      !- X Origin {m}
  3,                                      !- Y Origin {m}
  0,                                      !- Z Origin {m}
  {82489652-224b-4edf-ba5d-cce29ccb5201}, !- Building Story Name
  {ca34f140-d969-4078-83b0-a06ee693281f}; !- Thermal Zone Name

OS:Surface,
  {712cb673-6264-4710-b060-32b50ea1c9a7}, !- Handle
  Surface 25,                             !- Name
  Floor,                                  !- Surface Type
  ,                                       !- Construction Name
  {ad10392b-253a-46c6-aaab-1675e7b473c7}, !- Space Name
  Ground,                                 !- Outside Boundary Condition
  ,                                       !- Outside Boundary Condition Object
  NoSun,                                  !- Sun Exposure
  NoWind,                                 !- Wind Exposure
  ,                                       !- View Factor to Ground
  ,                                       !- Number of Vertices
  0, 0, 0,                                !- X,Y,Z Vertex 1 {m}
  0, 44, 0,                               !- X,Y,Z Vertex 2 {m}
  94, 44, 0,                              !- X,Y,Z Vertex 3 {m}
  94, 0, 0;                               !- X,Y,Z Vertex 4 {m}

OS:Surface,
  {9861e7af-eedd-4c68-b498-2463e467ad47}, !- Handle
  Surface 26,                             !- Name
  Wall,                                   !- Surface Type
  ,                                       !- Construction Name
  {ad10392b-253a-46c6-aaab-1675e7b473c7}, !- Space Name
  Surface,                                !- Outside Boundary Condition
  {f419458c-f2c2-444b-85d6-4f4f3ced3326}, !- Outside Boundary Condition Object
  NoSun,                                  !- Sun Exposure
  NoWind,                                 !- Wind Exposure
  ,                                       !- View Factor to Ground
  ,                                       !- Number of Vertices
  0, 44, 3,                               !- X,Y,Z Vertex 1 {m}
  0, 44, 0,                               !- X,Y,Z Vertex 2 {m}
  0, 0, 0,                                !- X,Y,Z Vertex 3 {m}
  0, 0, 3;                                !- X,Y,Z Vertex 4 {m}

OS:Surface,
  {eea32c18-7dca-4710-82b4-d2321adaf602}, !- Handle
  Surface 27,                             !- Name
  Wall,                                   !- Surface Type
  ,                                       !- Construction Name
  {ad10392b-253a-46c6-aaab-1675e7b473c7}, !- Space Name
  Surface,                                !- Outside Boundary Condition
  {856bb43c-5c84-47b6-8e81-4c480bb15554}, !- Outside Boundary Condition Object
  NoSun,                                  !- Sun Exposure
  NoWind,                                 !- Wind Exposure
  ,                                       !- View Factor to Ground
  ,                                       !- Number of Vertices
  94, 44, 3,                              !- X,Y,Z Vertex 1 {m}
  94, 44, 0,                              !- X,Y,Z Vertex 2 {m}
  0, 44, 0,                               !- X,Y,Z Vertex 3 {m}
  0, 44, 3;                               !- X,Y,Z Vertex 4 {m}

OS:Surface,
  {eb2682b4-70ac-4f63-b3a2-f82be7fd2265}, !- Handle
  Surface 28,                             !- Name
  Wall,                                   !- Surface Type
  ,                                       !- Construction Name
  {ad10392b-253a-46c6-aaab-1675e7b473c7}, !- Space Name