
OS:Version,
  {b588dfba-100a-4aa5-ba8e-3da6a3290c3c}, !- Handle
  3.5.0;                                  !- Version Identifier

OS:BuildingStory,
  {40ed9fff-d52e-4f5b-9a45-e7ccf0f42450}, !- Handle
  Story 1,                                !- Name
  0,                                      !- Nominal Z Coordinate {m}
  3,                                      !- Nominal Floor to Floor Height {m}
  ,                                       !- Default Construction Set Name
  ,                                       !- Default Schedule Set Name
  ;                                       !- Group Rendering Name

OS:Space,
  {ad53e868-6b0e-44d4-987c-b67e8d7e2a49}, !- Handle
  Story 1 Core Space,                     !- Name
  ,                                       !- Space Type Name
  ,                                       !- Default Construction Set Name
  ,                                       !- Default Schedule Set Name
  -0,                                     !- Direction of Relative North {deg}
  0,                                      !- X Origin {m}
  0,                                      !- Y Origin {m}
  0,                                      !- Z Origin {m}
  {40ed9fff-d52e-4f5b-9a45-e7ccf0f42450}, !- Building Story Name
  {98b5d9a4-00b4-4c6d-8e48-391125489847}; !- Thermal Zone Name

OS:Surface,
  {5b13ccaa-8a2c-4e81-b8ec-3afd1272720f}, !- Handle
  Story 1 Core Space Exterior Ground Floor, !- Name
  Floor,                                  !- Surface Type
  ,                                       !- Construction Name
  {ad53e868-6b0e-44d4-987c-b67e8d7e2a49}, !- Space Name
  Ground,                                 !- Outside Boundary Condition
  ,                                       !- Outside Boundary Condition Object
  NoSun,                                  !- Sun Exposure
  NoWind,                                 !- Wind Exposure
  ,                                       !- View Factor to Ground
  ,                                       !- Number of Vertices
  0, 0, 0,                                !- X,Y,Z Vertex 1 {m}
  0, 50, 0,                               !- X,Y,Z Vertex 2 {m}
  100, 50, 0,                             !- X,Y,Z Vertex 3 {m}
  100, 0, 0;                              !- X,Y,Z Vertex 4 {m}

OS:Surface,
  {3d514404-ac42-4994-b8f0-a61849e09f0d}, !- Handle
  Story 1 Core Space Exterior Wall 3,     !- Name
  Wall,                                   !- Surface Type
  ,                                       !- Construction Name
  {ad53e868-6b0e-44d4-987c-b67e8d7e2a49}, !- Space Name
  Outdoors,                               !- Outside Boundary Condition
  ,                                       !- Outside Boundary Condition Object
  SunExposed,                             !- Sun Exposure
  WindExposed,                            !- Wind Exposure
  ,                                       !- View Factor to Ground
  ,                                       !- Number of Vertices
  0, 50, 3,                               !- X,Y,Z Vertex 1 {m}
  0, 50, 0,                               !- X,Y,Z Vertex 2 {m}
  0, 0, 0,                                !- X,Y,Z Vertex 3 {m}
  0, 0, 3;                                !- X,Y,Z Vertex 4 {m}

OS:Surface,
  {46eba8d1-4306-45d2-b54d-295bebfabe29}, !- Handle
  Story 1 Core Space Exterior Wall 2,     !- Name
  Wall,                                   !- Surface Type
  ,                                       !- Construction Name
  {ad53e868-6b0e-44d4-987c-b67e8d7e2a49}, !- Space Name
  Outdoors,                               !- Outside Boundary Condition
  ,                                       !- Outside Boundary Condition Object
  SunExposed,                             !- Sun Exposure
  WindExposed,                            !- Wind Exposure
  ,                                       !- View Factor to Ground
  ,                                       !- Number of Vertices
  100, 50, 3,                             !- X,Y,Z Vertex 1 {m}
  100, 50, 0,                             !- X,Y,Z Vertex 2 {m}
  0, 50, 0,                               !- X,Y,Z Vertex 3 {m}
  0, 50, 3;                               !- X,Y,Z Vertex 4 {m}

OS:Surface,
  {0693a978-bef6-4a68-9ed6-32ac3b29ba47}, !- Handle
  Story 1 Core Space Exterior Wall 1,     !- Name
  Wall,                                   !- Surface Type
  ,                                       !- Construction Name
  {ad53e868-6b0e-44d4-987c-b67e8d7e2a49}, !- Space Name
  Outdoors,                               !- Outside Boundary Condition
  ,                                       !- Outside Boundary Condition Object
  SunExposed,                             !- Sun Exposure
  WindExposed,                            !- Wind Exposure
  ,                                       !- View Factor to Ground
  ,                                       !- Number of Vertices
  100, 0, 3,                              !- X,Y,Z Vertex 1 {m}
  100, 0, 0,                              !- X,Y,Z Vertex 2 {m}
  100, 50, 0,                             !- X,Y,Z Vertex 3 {m}
  100, 50, 3;                             !- X,Y,Z Vertex 4 {m}

OS:Surface,
  {f89f0ae9-6956-496f-a306-fa413ecc79de}, !- Handle
  Story 1 Core Space Exterior Wall,       !- Name
  Wall,                                   !- Surface Type
  ,                                       !- Construction Name
  {ad53e868-6b0e-44d4-987c-b67e8d7e2a49}, !- Space Name
  Outdoors,                               !- Outside Boundary Condition
  ,                                       !- Outside Boundary Condition Object
  SunExposed,                             !- Sun Exposure
  WindExposed,                            !- Wind Exposure
  ,                                       !- View Factor to Ground
  ,                                       !- Number of Vertices
  0, 0, 3,                                !- X,Y,Z Vertex 1 {m}
  0, 0, 0,                                !- X,Y,Z Vertex 2 {m}
  100, 0, 0,                              !- X,Y,Z Vertex 3 {m}
  100, 0, 3;                              !- X,Y,Z Vertex 4 {m}

OS:Surface,
  {39d537c3-33b5-4f51-8743-8457600757c1}, !- Handle
  Story 1 Core Space Exterior Roof,       !- Name
  RoofCeiling,                            !- Surface Type
  ,                                       !- Construction Name
  {ad53e868-6b0e-44d4-987c-b67e8d7e2a49}, !- Space Name
  Outdoors,                               !- Outside Boundary Condition
  ,                                       !- Outside Boundary Condition Object
  SunExposed,                             !- Sun Exposure
  WindExposed,                            !- Wind Exposure
  ,                                       !- View Factor to Ground
  ,                                       !- Number of Vertices
  100, 0, 3,                              !- X,Y,Z Vertex 1 {m}
  100, 50, 3,                             !- X,Y,Z Vertex 2 {m}
  0, 50, 3,                               !- X,Y,Z Vertex 3 {m}
  0, 0, 3;                                !- X,Y,Z Vertex 4 {m}

OS:ThermalZone,
  {98b5d9a4-00b4-4c6d-8e48-391125489847}, !- Handle
  Story 1 Core Thermal Zone,              !- Name
  ,                                       !- Multiplier
  ,                                       !- Ceiling Height {m}
  ,                                       !- Volume {m3}
  ,                                       !- Floor Area {m2}
  ,                                       !- Zone Inside Convection Algorithm
  ,                                       !- Zone Outside Convection Algorithm
  ,                                       !- Zone Conditioning Equipment List Name
  {d963cf92-469e-475e-80e9-e326d1752cfe}, !- Zone Air Inlet Port List
  {08594941-9fb6-4ad9-9d69-5c13ee090c70}, !- Zone Air Exhaust Port List
  {91e6df6c-b28d-4e4a-a795-8aed2164ca38}, !- Zone Air Node Name
  {52f670d4-8810-4037-96b3-f1a7582ac729}, !- Zone Return Air Port List
  ,                                       !- Primary Daylighting Control Name
  ,                                       !- Fraction of Zone Controlled by Primary Daylighting Control
  ,                                       !- Secondary Daylighting Control Name
  ,                                       !- Fraction of Zone Controlled by Secondary Daylighting Control
  ,                                       !- Illuminance Map Name
  ,                                       !- Group Rendering Name
  {95037fae-e1a1-4ffd-8342-f7088dbec453}, !- Thermostat Name
  No;                                     !- Use Ideal Air Loads

OS:Node,
  {dadb7984-451d-4d6c-a5e7-6a227810a8c8}, !- Handle
  Node 1,                                 !- Name
  {91e6df6c-b28d-4e4a-a795-8aed2164ca38}, !- Inlet Port
  ;                                       !- Outlet Port

OS:Connection,
  {91e6df6c-b28d-4e4a-a795-8aed2164ca38}, !- Handle
  {98b5d9a4-00b4-4c6d-8e48-391125489847}, !- Source Object
  11,                                     !- Outlet Port
  {dadb7984-451d-4d6c-a5e7-6a227810a8c8}, !- Target Object
  2;                                      !- Inlet Port

OS:PortList,
  {d963cf92-469e-475e-80e9-e326d1752cfe}, !- Handle
  {98b5d9a4-00b4-4c6d-8e48-391125489847}, !- HVAC Component
  {ba4032de-9acc-4ddb-96d6-2ee0a05e326f}; !- Port 1

OS:PortList,
  {08594941-9fb6-4ad9-9d69-5c13ee090c70}, !- Handle
  {98b5d9a4-00b4-4c6d-8e48-391125489847}, !- HVAC Component
  {720e30c9-2f73-4d25-8bd5-c8eaaa96766f}; !- Port 1

OS:PortList,
  {52f670d4-8810-4037-96b3-f1a7582ac729}, !- Handle
  {98b5d9a4-00b4-4c6d-8e48-391125489847}; !- HVAC Component

OS:Sizing:Zone,
  {921a0165-101b-463e-845a-62f8906533f6}, !- Handle
  {98b5d9a4-00b4-4c6d-8e48-391125489847}, !- Zone or ZoneList Name
  SupplyAirTemperature,                   !- Zone Cooling Design Supply Air Temperature Input Method
  14,                                     !- Zone Cooling Design Supply Air Temperature {C}
  11.11,                                  !- Zone Cooling Design Supply Air Temperature Difference {deltaC}
  SupplyAirTemperature,                   !- Zone Heating Design Supply Air Temperature Input Method
  40,                                     !- Zone Heating Design Supply Air Temperature {C}
  11.11,                                  !- Zone Heating Design Supply Air Temperature Difference {deltaC}
  0.0085,                                 !- Zone Cooling Design Supply Air Humidity Ratio {kg-H2O/kg-air}
  0.008,                                  !- Zone Heating Design Supply Air Humidity Ratio {kg-H2O/kg-air}
  ,                                       !- Zone Heating Sizing Factor
  ,                                       !- Zone Cooling Sizing Factor
  DesignDay,                              !- Cooling Design Air Flow Method
  ,                                       !- Cooling Design Air Flow Rate {m3/s}
  ,                                       !- Cooling Minimum Air Flow per Zone Floor Area {m3/s-m2}
  ,                                       !- Cooling Minimum Air Flow {m3/s}
  ,                                       !- Cooling Minimum Air Flow Fraction
  DesignDay,                              !- Heating Design Air Flow Method
  ,                                       !- Heating Design Air Flow Rate {m3/s}
  ,                                       !- Heating Maximum Air Flow per Zone Floor Area {m3/s-m2}
  ,                                       !- Heating Maximum Air Flow {m3/s}
  ,                                       !- Heating Maximum Air Flow Fraction
  No,                                     !- Account for Dedicated Outdoor Air System
  NeutralSupplyAir,                       !- Dedicated Outdoor Air System Control Strategy
  autosize,                               !- Dedicated Outdoor Air Low Setpoint Temperature for Design {C}
  autosize,                               !- Dedicated Outdoor Air High Setpoint Temperature for Design {C}
  Sensible Load Only No Latent Load,      !- Zone Load Sizing Method
  HumidityRatioDifference,                !- Zone Latent Cooling Design Supply Air Humidity Ratio Input Method
  ,                                       !- Zone Dehumidification Design Supply Air Humidity Ratio {kgWater/kgDryAir}
  0.005,                                  !- Zone Cooling Design Supply Air Humidity Ratio Difference {kgWater/kgDryAir}
  HumidityRatioDifference,                !- Zone Latent Heating Design Supply Air Humidity Ratio Input Method
  ,                                       !- Zone Humidification Design Supply Air Humidity Ratio {kgWater/kgDryAir}
  0.005;                                  !- Zone Humidification Design Supply Air Humidity Ratio Difference {kgWater/kgDryAir}

OS:ZoneHVAC:EquipmentList,
  {d2876365-79e0-462c-a612-b3424d327ace}, !- Handle
  Zone HVAC Equipment List 1,             !- Name
  {98b5d9a4-00b4-4c6d-8e48-391125489847}, !- Thermal Zone
  ,                                       !- Load Distribution Scheme
  {6b833a18-7242-49e6-986d-a6844d89e590}, !- Zone Equipment 1
  1,                                      !- Zone Equipment Cooling Sequence 1
  1,                                      !- Zone Equipment Heating or No-Load Sequence 1
  ,                                       !- Zone Equipment Sequential Cooling Fraction Schedule Name 1
  ;                                       !- Zone Equipment Sequential Heating Fraction Schedule Name 1

OS:SubSurface,
  {ccd55676-3d58-48b4-b123-f8aa707192a1}, !- Handle
  Story 1 Core Space Exterior Wall 1 Window, !- Name
  FixedWindow,                            !- Sub Surface Type
  ,                                       !- Construction Name
  {0693a978-bef6-4a68-9ed6-32ac3b29ba47}, !- Surface Name
  ,                                       !- Outside Boundary Condition Object
  ,                                       !- View Factor to Ground
  ,                                       !- Frame and Divider Name
  ,                                       !- Multiplier
  ,                                       !- Number of Vertices
  100, 0.0254, 2.20122043996701,          !- X,Y,Z Vertex 1 {m}
  100, 0.0254, 1,                         !- X,Y,Z Vertex 2 {m}
  100, 49.9746, 1,                        !- X,Y,Z Vertex 3 {m}
  100, 49.9746, 2.20122043996701;         !- X,Y,Z Vertex 4 {m}

OS:SubSurface,
  {bb1c305f-6170-42eb-86b1-28501e740dc4}, !- Handle
  Story 1 Core Space Exterior Wall 2 Window, !- Name
  FixedWindow,                            !- Sub Surface Type
  ,                                       !- Construction Name
  {46eba8d1-4306-45d2-b54d-295bebfabe29}, !- Surface Name
  ,                                       !- Outside Boundary Condition Object
  ,                                       !- View Factor to Ground
  ,                                       !- Frame and Divider Name
  ,                                       !- Multiplier
  ,                                       !- Number of Vertices
  99.9746, 50, 2.2006099098342,           !- X,Y,Z Vertex 1 {m}
  99.9746, 50, 1,                         !- X,Y,Z Vertex 2 {m}
  0.0253999999999905, 50, 1,              !- X,Y,Z Vertex 3 {m}
  0.0253999999999905, 50, 2.2006099098342; !- X,Y,Z Vertex 4 {m}

OS:SubSurface,
  {da84caac-05ec-4aad-99f7-93f9edf7dab0}, !- Handle
  Story 1 Core Space Exterior Wall Window, !- Name
  FixedWindow,                            !- Sub Surface Type
  ,                                       !- Construction Name
  {f89f0ae9-6956-496f-a306-fa413ecc79de}, !- Surface Name
  ,                                       !- Outside Boundary Condition Object
  ,                                       !- View Factor to Ground
  ,                                       !- Frame and Divider Name
  ,                                       !- Multiplier
  ,                                       !- Number of Vertices
  0.0254, 0, 2.2006099098342,             !- X,Y,Z Vertex 1 {m}
  0.0254, 0, 1,                           !- X,Y,Z Vertex 2 {m}
  99.9746, 0, 1,                          !- X,Y,Z Vertex 3 {m}
  99.9746, 0, 2.2006099098342;            !- X,Y,Z Vertex 4 {m}

OS:SubSurface,
  {f38c4399-37b7-4bc7-92b9-6a94ffac8543}, !- Handle
  Story 1 Core Space Exterior Wall 3 Window, !- Name
  FixedWindow,                            !- Sub Surface Type
  ,                                       !- Construction Name
  {3d514404-ac42-4994-b8f0-a61849e09f0d}, !- Surface Name
  ,                                       !- Outside Boundary Condition Object
  ,                                       !- View Factor to Ground
  ,                                       !- Frame and Divider Name
  ,                                       !- Multiplier
  ,                                       !- Number of Vertices
  0, 49.9746, 2.20122043996701,           !- X,Y,Z Vertex 1 {m}
  0, 49.9746, 1,                          !- X,Y,Z Vertex 2 {m}
  0, 0.0254000000000048, 1,               !- X,Y,Z Vertex 3 {m}
  0, 0.0254000000000048, 2.20122043996701; !- X,Y,Z Vertex 4 {m}

OS:Schedule:Constant,
  {80895050-229d-4d37-a060-b75707378be2}, !- Handle
  Always On Discrete,                     !- Name
  {d5faebed-5e12-4b06-a3c3-d41a9468a00c}, !- Schedule Type Limits Name
  1;                                      !- Value

OS:ScheduleTypeLimits,
  {d5faebed-5e12-4b06-a3c3-d41a9468a00c}, !- Handle
  OnOff,                                  !- Name
  0,                                      !- Lower Limit Value
  1,                                      !- Upper Limit Value
  Discrete,                               !- Numeric Type
  Availability;                           !- Unit Type

OS:Fan:ConstantVolume,
  {e66649a3-1a27-40b7-97b2-bd82d957e732}, !- Handle
  Fan Constant Volume 1,                  !- Name
  {80895050-229d-4d37-a060-b75707378be2}, !- Availability Schedule Name
  ,                                       !- Fan Total Efficiency
  300,                                    !- Pressure Rise {Pa}
  AutoSize,                               !- Maximum Flow Rate {m3/s}
  ,                                       !- Motor Efficiency
  ,                                       !- Motor In Airstream Fraction
  ,                                       !- Air Inlet Node Name
  ,                                       !- Air Outlet Node Name
  ;                                       !- End-Use Subcategory

OS:Coil:Heating:Electric,
  {196f63fa-d17e-4180-8031-fc053067b906}, !- Handle
  Coil Heating Electric 1,                !- Name
  {80895050-229d-4d37-a060-b75707378be2}, !- Availability Schedule Name
  ,                                       !- Efficiency
  ,                                       !- Nominal Capacity {W}
  ,                                       !- Air Inlet Node Name
  ;                                       !- Air Outlet Node Name

OS:Coil:Cooling:DX:SingleSpeed,
  {2e7d6138-3831-47e7-8377-508ad07e00b4}, !- Handle
  Coil Cooling DX Single Speed 1,         !- Name
  {80895050-229d-4d37-a060-b75707378be2}, !- Availability Schedule Name
  autosize,                               !- Rated Total Cooling Capacity {W}
  autosize,                               !- Rated Sensible Heat Ratio
  3,                                      !- Rated COP {W/W}
  autosize,                               !- Rated Air Flow Rate {m3/s}
  773.3,                                  !- Rated Evaporator Fan Power Per Volume Flow Rate 2017 {W/(m3/s)}
  934.4,                                  !- Rated Evaporator Fan Power Per Volume Flow Rate 2023 {W/(m3/s)}
  ,                                       !- Air Inlet Node Name
  ,                                       !- Air Outlet Node Name
  {d289b0bf-83ab-4332-aa40-cbd0e78793cb}, !- Total Cooling Capacity Function of Temperature Curve Name
  {1b0de275-60ce-44b6-9757-3d8582c3b7a3}, !- Total Cooling Capacity Function of Flow Fraction Curve Name
  {a0228eda-032f-47c2-924c-70fc4c92467b}, !- Energy Input Ratio Function of Temperature Curve Name
  {5abfe038-9367-4480-900c-0c49ec921cb8}, !- Energy Input Ratio Function of Flow Fraction Curve Name
  {ab4b20d5-6b7a-4edc-89f9-1ef8c2e96d7f}, !- Part Load Fraction Correlation Curve Name
  -25,                                    !- Minimum Outdoor Dry-Bulb Temperature for Compressor Operation {C}
  0,                                      !- Nominal Time for Condensate Removal to Begin {s}
  0,                                      !- Ratio of Initial Moisture Evaporation Rate and Steady State Latent Capacity {dimensionless}
  0,                                      !- Maximum Cycling Rate {cycles/hr}
  0,                                      !- Latent Capacity Time Constant {s}
  ,                                       !- Condenser Air Inlet Node Name
  AirCooled,                              !- Condenser Type
  0.9,                                    !- Evaporative Condenser Effectiveness {dimensionless}
  autosize,                               !- Evaporative Condenser Air Flow Rate {m3/s}
  autosize,                               !- Evaporative Condenser Pump Rated Power Consumption {W}
  0,                                      !- Crankcase Heater Capacity {W}
  10,                                     !- Maximum Outdoor Dry-Bulb Temperature for Crankcase Heater Operation {C}
  ,                                       !- Supply Water Storage Tank Name
  ,                                       !- Condensate Collection Water Storage Tank Name
  0,                                      !- Basin Heater Capacity {W/K}
  2;                                      !- Basin Heater Setpoint Temperature {C}

OS:Curve:Biquadratic,
  {866e9944-4387-4458-b3e5-3fa610fd7e72}, !- Handle
  Curve Biquadratic 1,                    !- Name
  0.942587793,                            !- Coefficient1 Constant
  0.009543347,                            !- Coefficient2 x
  0.00068377,                             !- Coefficient3 x**2
  -0.011042676,                           !- Coefficient4 y
  5.249e-06,                              !- Coefficient5 y**2
  -9.72e-06,                              !- Coefficient6 x*y
  17,                                     !- Minimum Value of x
  22,                                     !- Maximum Value of x
  13,                                     !- Minimum Value of y
  46;                                     !- Maximum Value of y

OS:Curve:Quadratic,
  {1b0de275-60ce-44b6-9757-3d8582c3b7a3}, !- Handle
  Curve Quadratic 1,                      !- Name
  0.8,                                    !- Coefficient1 Constant
  0.2,                                    !- Coefficient2 x
  0,                                      !- Coefficient3 x**2
  0.5,                                    !- Minimum Value of x
  1.5;                                    !- Maximum Value of x

OS:Curve:Biquadratic,
  {6f002d74-1ff3-44ad-9edc-42f883462199}, !- Handle
  Curve Biquadratic 2,                    !- Name
  0.342414409,                            !- Coefficient1 Constant
  0.034885008,                            !- Coefficient2 x
  -0.0006237,                             !- Coefficient3 x**2
  0.004977216,                            !- Coefficient4 y
  0.000437951,                            !- Coefficient5 y**2
  -0.000728028,                           !- Coefficient6 x*y
  17,                                     !- Minimum Value of x
  22,                                     !- Maximum Value of x
  13,                                     !- Minimum Value of y
  46;                                     !- Maximum Value of y

OS:Curve:Quadratic,
  {5abfe038-9367-4480-900c-0c49ec921cb8}, !- Handle
  Curve Quadratic 2,                      !- Name
  1.1552,                                 !- Coefficient1 Constant
  -0.1808,                                !- Coefficient2 x
  0.0256,                                 !- Coefficient3 x**2
  0.5,                                    !- Minimum Value of x
  1.5;                                    !- Maximum Value of x

OS:Curve:Quadratic,
  {ab4b20d5-6b7a-4edc-89f9-1ef8c2e96d7f}, !- Handle
  Curve Quadratic 3,                      !- Name
  0.85,                                   !- Coefficient1 Constant
  0.15,                                   !- Coefficient2 x
  0,                                      !- Coefficient3 x**2
  0,                                      !- Minimum Value of x
  1;                                      !- Maximum Value of x

OS:Coil:Heating:DX:SingleSpeed,
  {a68cbeaa-fcfd-44ed-a5c3-a676792e74e0}, !- Handle
  Coil Heating DX Single Speed 1,         !- Name
  {80895050-229d-4d37-a060-b75707378be2}, !- Availability Schedule Name
  Autosize,                               !- Rated Total Heating Capacity {W}
  5,                                      !- Rated COP {W/W}
  Autosize,                               !- Rated Air Flow Rate {m3/s}
  773.3,                                  !- Rated Supply Fan Power Per Volume Flow Rate 2017 {W/(m3/s)}
  934.4,                                  !- Rated Supply Fan Power Per Volume Flow Rate 2023 {W/(m3/s)}
  ,                                       !- Air Inlet Node Name
  ,                                       !- Air Outlet Node Name
  {9e5cc3bc-beac-4946-a0b6-64da17051f7e}, !- Total Heating Capacity Function of Temperature Curve Name
  {3536d311-f1d8-4756-bf34-860380905cc2}, !- Total Heating Capacity Function of Flow Fraction Curve Name
  {411b53d2-645f-418b-9cf4-022ff8b38cca}, !- Energy Input Ratio Function of Temperature Curve Name
  {beb2efc8-5df0-4238-a6c7-09a61fbed73b}, !- Energy Input Ratio Function of Flow Fraction Curve Name
  {5faa45f2-de35-4d4d-b02c-15ba32650e52}, !- Part Load Fraction Correlation Curve Name
  ,                                       !- Defrost Energy Input Ratio Function of Temperature Curve Name
  ,                                       !- Minimum Outdoor Dry-Bulb Temperature for Compressor Operation {C}
  ,                                       !- Maximum Outdoor Dry-Bulb Temperature for Defrost Operation {C}
  ,                                       !- Crankcase Heater Capacity {W}
  ,                                       !- Maximum Outdoor Dry-Bulb Temperature for Crankcase Heater Operation {C}
  Resistive,                              !- Defrost Strategy
  Timed,                                  !- Defrost Control
  0.166667,                               !- Defrost Time Period Fraction
  2000;                                   !- Resistive Defrost Heater Capacity {W}

OS:Curve:Cubic,
  {9e5cc3bc-beac-4946-a0b6-64da17051f7e}, !- Handle
  Curve Cubic 1,                          !- Name
  0.758746,                               !- Coefficient1 Constant
  0.027626,                               !- Coefficient2 x
  0.000148716,                            !- Coefficient3 x**2
  3.4992e-06,                             !- Coefficient4 x**3
  -20,                                    !- Minimum Value of x
  20;                                     !- Maximum Value of x

OS:Curve:Cubic,
  {3536d311-f1d8-4756-bf34-860380905cc2}, !- Handle
  Curve Cubic 2,                          !- Name
  0.84,                                   !- Coefficient1 Constant
  0.16,                                   !- Coefficient2 x
  0,                                      !- Coefficient3 x**2
  0,                                      !- Coefficient4 x**3
  0.5,                                    !- Minimum Value of x
  1.5;                                    !- Maximum Value of x

OS:Curve:Cubic,
  {411b53d2-645f-418b-9cf4-022ff8b38cca}, !- Handle
  Curve Cubic 3,                          !- Name
  1.19248,                                !- Coefficient1 Constant
  -0.0300438,                             !- Coefficient2 x
  0.00103745,                             !- Coefficient3 x**2
  -2.3328e-05,                            !- Coefficient4 x**3
  -20,                                    !- Minimum Value of x
  20;                                     !- Maximum Value of x

OS:Curve:Quadratic,
  {beb2efc8-5df0-4238-a6c7-09a61fbed73b}, !- Handle
  Curve Quadratic 4,                      !- Name
  1.3824,                                 !- Coefficient1 Constant
  -0.4336,                                !- Coefficient2 x
  0.0512,                                 !- Coefficient3 x**2
  0,                                      !- Minimum Value of x
  1;                                      !- Maximum Value of x

OS:Curve:Quadratic,
  {5faa45f2-de35-4d4d-b02c-15ba32650e52}, !- Handle
  Curve Quadratic 5,                      !- Name
  0.75,                                   !- Coefficient1 Constant
  0.25,                                   !- Coefficient2 x
  0,                                      !- Coefficient3 x**2
  0,                                      !- Minimum Value of x
  1;                                      !- Maximum Value of x

OS:ZoneHVAC:PackagedTerminalHeatPump,
  {6b833a18-7242-49e6-986d-a6844d89e590}, !- Handle
  Zone HVAC Packaged Terminal Heat Pump 1, !- Name
  {80895050-229d-4d37-a060-b75707378be2}, !- Availability Schedule Name
  {9c7c63e8-bd0f-4065-9a1d-66bc82d4f561}, !- Air Inlet Node Name
  {18f88444-1171-4530-b934-8a981d2a6f8a}, !- Air Outlet Node Name
  OutdoorAir:Mixer,                       !- Outdoor Air Mixer Object Type
  ,                                       !- Outdoor Air Mixer Name
  Autosize,                               !- Supply Air Flow Rate During Cooling Operation {m3/s}
  Autosize,                               !- Supply Air Flow Rate During Heating Operation {m3/s}
  Autosize,                               !- Supply Air Flow Rate When No Cooling or Heating is Needed {m3/s}
  Autosize,                               !- Outdoor Air Flow Rate During Cooling Operation {m3/s}
  Autosize,                               !- Outdoor Air Flow Rate During Heating Operation {m3/s}
  Autosize,                               !- Outdoor Air Flow Rate When No Cooling or Heating is Needed {m3/s}
  {e66649a3-1a27-40b7-97b2-bd82d957e732}, !- Supply Air Fan Name
  {a68cbeaa-fcfd-44ed-a5c3-a676792e74e0}, !- Heating Coil Name