
OS:Version,
  {fcc4a191-fd97-449e-9944-4fd082673690}, !- Handle
  2.8.1;                                  !- Version Identifier

OS:BuildingStory,
  {8982d714-c3a9-4e65-953a-39cdb14f8659}, !- Handle
  Story 1,                                !- Name
  0,                                      !- Nominal Z Coordinate {m}
  3,                                      !- Nominal Floor to Floor Height {m}
  ,                                       !- Default Construction Set Name
  ,                                       !- Default Schedule Set Name
  ;                                       !- Group Rendering Name

OS:Space,
  {02592f49-6a59-48d3-944e-90b28d0d7482}, !- Handle
  Story 1 West Perimeter Space,           !- Name
  ,                                       !- Space Type Name
  ,                                       !- Default Construction Set Name
  ,                                       !- Default Schedule Set Name
  -0,                                     !- Direction of Relative North {deg}
  0,                                      !- X Origin {m}
  0,                                      !- Y Origin {m}
  0,                                      !- Z Origin {m}
  {8982d714-c3a9-4e65-953a-39cdb14f8659}, !- Building Story Name
  {046061be-6ac9-42f8-939c-9945696daf81}; !- Thermal Zone Name

OS:Surface,
  {6cc43650-283c-49bf-b8f3-fb7922168085}, !- Handle
  Surface 1,                              !- Name
  Floor,                                  !- Surface Type
  ,                                       !- Construction Name
  {02592f49-6a59-48d3-944e-90b28d0d7482}, !- Space Name
  Ground,                                 !- Outside Boundary Condition
  ,                                       !- Outside Boundary Condition Object
  NoSun,                                  !- Sun Exposure
  NoWind,                                 !- Wind Exposure
  ,                                       !- View Factor to Ground
  ,                                       !- Number of Vertices
  0, 0, 0,                                !- X,Y,Z Vertex 1 {m}
  0, 50, 0,                               !- X,Y,Z Vertex 2 {m}
  3, 47, 0,                               !- X,Y,Z Vertex 3 {m}
  3, 3, 0;                                !- X,Y,Z Vertex 4 {m}

OS:Surface,
  {b9e3f21c-9667-43ab-bbe5-347c59958b7b}, !- Handle
  Surface 2,                              !- Name
  Wall,                                   !- Surface Type
  ,                                       !- Construction Name
  {02592f49-6a59-48d3-944e-90b28d0d7482}, !- Space Name
  Outdoors,                               !- Outside Boundary Condition
  ,                                       !- Outside Boundary Condition Object
  SunExposed,                             !- Sun Exposure
  WindExposed,                            !- Wind Exposure
  ,                                       !- View Factor to Ground
  ,                                       !- Number of Vertices
  0, 50, 3,                               !- X,Y,Z Vertex 1 {m}
  0, 50, 0,                               !- X,Y,Z Vertex 2 {m}
  0, 0, 0,                                !- X,Y,Z Vertex 3 {m}
  0, 0, 3;                                !- X,Y,Z Vertex 4 {m}

OS:Surface,
  {a015260f-45e5-4823-bb24-05e348a3d02f}, !- Handle
  Surface 3,                              !- Name
  Wall,                                   !- Surface Type
  ,                                       !- Construction Name
  {02592f49-6a59-48d3-944e-90b28d0d7482}, !- Space Name
  Surface,                                !- Outside Boundary Condition
  {5fd07ebd-19d7-451f-abe4-a0042e36fa4e}, !- Outside Boundary Condition Object
  NoSun,                                  !- Sun Exposure
  NoWind,                                 !- Wind Exposure
  ,                                       !- View Factor to Ground
  ,                                       !- Number of Vertices
  3, 47, 3,                               !- X,Y,Z Vertex 1 {m}
  3, 47, 0,                               !- X,Y,Z Vertex 2 {m}
  0, 50, 0,                               !- X,Y,Z Vertex 3 {m}
  0, 50, 3;                               !- X,Y,Z Vertex 4 {m}

OS:Surface,
  {3399bc2c-c026-4ece-96e5-2fb5b5e36289}, !- Handle
  Surface 4,                              !- Name
  Wall,                                   !- Surface Type
  ,                                       !- Construction Name
  {02592f49-6a59-48d3-944e-90b28d0d7482}, !- Space Name
  Surface,                                !- Outside Boundary Condition
  {99683a28-dbc3-4c20-bc91-2d0c559ead6f}, !- Outside Boundary Condition Object
  NoSun,                                  !- Sun Exposure
  NoWind,                                 !- Wind Exposure
  ,                                       !- View Factor to Ground
  ,                                       !- Number of Vertices
  3, 3, 3,                                !- X,Y,Z Vertex 1 {m}
  3, 3, 0,                                !- X,Y,Z Vertex 2 {m}
  3, 47, 0,                               !- X,Y,Z Vertex 3 {m}
  3, 47, 3;                               !- X,Y,Z Vertex 4 {m}

OS:Surface,
  {f3ed1243-b28a-4608-adff-350d9dda88be}, !- Handle
  Surface 5,                              !- Name
  Wall,                                   !- Surface Type
  ,                                       !- Construction Name
  {02592f49-6a59-48d3-944e-90b28d0d7482}, !- Space Name
  Surface,                                !- Outside Boundary Condition
  {abf48830-15d1-45d5-9ffd-0771508c102e}, !- Outside Boundary Condition Object
  NoSun,                                  !- Sun Exposure
  NoWind,                                 !- Wind Exposure
  ,                                       !- View Factor to Ground
  ,                                       !- Number of Vertices
  0, 0, 3,                                !- X,Y,Z Vertex 1 {m}
  0, 0, 0,                                !- X,Y,Z Vertex 2 {m}
  3, 3, 0,                                !- X,Y,Z Vertex 3 {m}
  3, 3, 3;                                !- X,Y,Z Vertex 4 {m}

OS:Surface,
  {41511206-85e9-4274-b9de-f96dfb7f796d}, !- Handle
  Surface 6,                              !- Name
  RoofCeiling,                            !- Surface Type
  ,                                       !- Construction Name
  {02592f49-6a59-48d3-944e-90b28d0d7482}, !- Space Name
  Outdoors,                               !- Outside Boundary Condition
  ,                                       !- Outside Boundary Condition Object
  SunExposed,                             !- Sun Exposure
  WindExposed,                            !- Wind Exposure
  ,                                       !- View Factor to Ground
  ,                                       !- Number of Vertices
  3, 3, 3,                                !- X,Y,Z Vertex 1 {m}
  3, 47, 3,                               !- X,Y,Z Vertex 2 {m}
  0, 50, 3,                               !- X,Y,Z Vertex 3 {m}
  0, 0, 3;                                !- X,Y,Z Vertex 4 {m}

OS:Space,
  {2cca7dd3-f7ff-428e-a94b-91923d087de0}, !- Handle
  Story 1 North Perimeter Space,          !- Name
  ,                                       !- Space Type Name
  ,                                       !- Default Construction Set Name
  ,                                       !- Default Schedule Set Name
  -0,                                     !- Direction of Relative North {deg}
  3,                                      !- X Origin {m}
  47,                                     !- Y Origin {m}
  0,                                      !- Z Origin {m}
  {8982d714-c3a9-4e65-953a-39cdb14f8659}, !- Building Story Name
  {1ba80bce-886f-4496-9e3a-f6b656e91eb5}; !- Thermal Zone Name

OS:Surface,
  {b37f89e7-8d2e-4532-bd4e-3a3d22fe9338}, !- Handle
  Surface 7,                              !- Name
  Floor,                                  !- Surface Type
  ,                                       !- Construction Name
  {2cca7dd3-f7ff-428e-a94b-91923d087de0}, !- Space Name
  Ground,                                 !- Outside Boundary Condition
  ,                                       !- Outside Boundary Condition Object
  NoSun,                                  !- Sun Exposure
  NoWind,                                 !- Wind Exposure
  ,                                       !- View Factor to Ground
  ,                                       !- Number of Vertices
  -3, 3, 0,                               !- X,Y,Z Vertex 1 {m}
  97, 3, 0,                               !- X,Y,Z Vertex 2 {m}
  94, 0, 0,                               !- X,Y,Z Vertex 3 {m}
  0, 0, 0;                                !- X,Y,Z Vertex 4 {m}

OS:Surface,
  {fa453883-7cc0-4ce8-aeea-5f9473d3ee17}, !- Handle
  Surface 8,                              !- Name
  Wall,                                   !- Surface Type
  ,                                       !- Construction Name
  {2cca7dd3-f7ff-428e-a94b-91923d087de0}, !- Space Name
  Outdoors,                               !- Outside Boundary Condition
  ,                                       !- Outside Boundary Condition Object
  SunExposed,                             !- Sun Exposure
  WindExposed,                            !- Wind Exposure
  ,                                       !- View Factor to Ground
  ,                                       !- Number of Vertices
  97, 3, 3,                               !- X,Y,Z Vertex 1 {m}
  97, 3, 0,                               !- X,Y,Z Vertex 2 {m}
  -3, 3, 0,                               !- X,Y,Z Vertex 3 {m}
  -3, 3, 3;                               !- X,Y,Z Vertex 4 {m}

OS:Surface,
  {13e033c1-9e94-4930-b091-896d11d3e2a8}, !- Handle
  Surface 9,                              !- Name
  Wall,                                   !- Surface Type
  ,                                       !- Construction Name
  {2cca7dd3-f7ff-428e-a94b-91923d087de0}, !- Space Name
  Surface,                                !- Outside Boundary Condition
  {5b12798c-34f5-4f22-9dc3-154d7929a98e}, !- Outside Boundary Condition Object
  NoSun,                                  !- Sun Exposure
  NoWind,                                 !- Wind Exposure
  ,                                       !- View Factor to Ground
  ,                                       !- Number of Vertices
  94, 0, 3,                               !- X,Y,Z Vertex 1 {m}
  94, 0, 0,                               !- X,Y,Z Vertex 2 {m}
  97, 3, 0,                               !- X,Y,Z Vertex 3 {m}
  97, 3, 3;                               !- X,Y,Z Vertex 4 {m}

OS:Surface,
  {d4b9e8ef-c949-492d-9fbc-bc15a773ff83}, !- Handle
  Surface 10,                             !- Name
  Wall,                                   !- Surface Type
  ,                                       !- Construction Name
  {2cca7dd3-f7ff-428e-a94b-91923d087de0}, !- Space Name
  Surface,                                !- Outside Boundary Condition
  {fe46ea49-b653-4ac7-8baf-7b50b7953a61}, !- Outside Boundary Condition Object
  NoSun,                                  !- Sun Exposure
  NoWind,                                 !- Wind Exposure
  ,                                       !- View Factor to Ground
  ,                                       !- Number of Vertices
  0, 0, 3,                                !- X,Y,Z Vertex 1 {m}
  0, 0, 0,                                !- X,Y,Z Vertex 2 {m}
  94, 0, 0,                               !- X,Y,Z Vertex 3 {m}
  94, 0, 3;                               !- X,Y,Z Vertex 4 {m}

OS:Surface,
  {5fd07ebd-19d7-451f-abe4-a0042e36fa4e}, !- Handle
  Surface 11,                             !- Name
  Wall,                                   !- Surface Type
  ,                                       !- Construction Name
  {2cca7dd3-f7ff-428e-a94b-91923d087de0}, !- Space Name
  Surface,                                !- Outside Boundary Condition
  {a015260f-45e5-4823-bb24-05e348a3d02f}, !- Outside Boundary Condition Object
  NoSun,                                  !- Sun Exposure
  NoWind,                                 !- Wind Exposure
  ,                                       !- View Factor to Ground
  ,                                       !- Number of Vertices
  -3, 3, 3,                               !- X,Y,Z Vertex 1 {m}
  -3, 3, 0,                               !- X,Y,Z Vertex 2 {m}
  0, 0, 0,                                !- X,Y,Z Vertex 3 {m}
  0, 0, 3;                                !- X,Y,Z Vertex 4 {m}

OS:Surface,
  {e3dd355c-6992-4326-a084-db40d9705c08}, !- Handle
  Surface 12,                             !- Name
  RoofCeiling,                            !- Surface Type
  ,                                       !- Construction Name
  {2cca7dd3-f7ff-428e-a94b-91923d087de0}, !- Space Name
  Outdoors,                               !- Outside Boundary Condition
  ,                                       !- Outside Boundary Condition Object
  SunExposed,                             !- Sun Exposure
  WindExposed,                            !- Wind Exposure
  ,                                       !- View Factor to Ground
  ,                                       !- Number of Vertices
  0, 0, 3,                                !- X,Y,Z Vertex 1 {m}
  94, 0, 3,                               !- X,Y,Z Vertex 2 {m}
  97, 3, 3,                               !- X,Y,Z Vertex 3 {m}
  -3, 3, 3;                               !- X,Y,Z Vertex 4 {m}

OS:Space,
  {94dc0873-3b90-4cb1-a663-a55148562d88}, !- Handle
  Story 1 East Perimeter Space,           !- Name
  ,                                       !- Space Type Name
  ,                                       !- Default Construction Set Name
  ,                                       !- Default Schedule Set Name
  -0,                                     !- Direction of Relative North {deg}
  97,                                     !- X Origin {m}
  3,                                      !- Y Origin {m}
  0,                                      !- Z Origin {m}
  {8982d714-c3a9-4e65-953a-39cdb14f8659}, !- Building Story Name
  {cc9fd6ce-9fb7-44d4-885d-ff14e39a730d}; !- Thermal Zone Name

OS:Surface,
  {182704d9-c505-4a69-a301-c6e9ad0a3b79}, !- Handle
  Surface 13,                             !- Name
  Floor,                                  !- Surface Type
  ,                                       !- Construction Name
  {94dc0873-3b90-4cb1-a663-a55148562d88}, !- Space Name
  Ground,                                 !- Outside Boundary Condition
  ,                                       !- Outside Boundary Condition Object
  NoSun,                                  !- Sun Exposure
  NoWind,                                 !- Wind Exposure
  ,                                       !- View Factor to Ground
  ,                                       !- Number of Vertices
  3, 47, 0,                               !- X,Y,Z Vertex 1 {m}
  3, -3, 0,                               !- X,Y,Z Vertex 2 {m}
  0, 0, 0,                                !- X,Y,Z Vertex 3 {m}
  0, 44, 0;                               !- X,Y,Z Vertex 4 {m}

OS:Surface,
  {9fd19eb7-20d4-4e6c-b11e-84f425306064}, !- Handle
  Surface 14,                             !- Name
  Wall,                                   !- Surface Type
  ,                                       !- Construction Name
  {94dc0873-3b90-4cb1-a663-a55148562d88}, !- Space Name
  Outdoors,                               !- Outside Boundary Condition
  ,                                       !- Outside Boundary Condition Object
  SunExposed,                             !- Sun Exposure
  WindExposed,                            !- Wind Exposure
  ,                                       !- View Factor to Ground
  ,                                       !- Number of Vertices
  3, -3, 3,                               !- X,Y,Z Vertex 1 {m}
  3, -3, 0,                               !- X,Y,Z Vertex 2 {m}
  3, 47, 0,                               !- X,Y,Z Vertex 3 {m}
  3, 47, 3;                               !- X,Y,Z Vertex 4 {m}

OS:Surface,
  {eeae3a35-1a1a-42bb-91fc-3e07b2869b94}, !- Handle
  Surface 15,                             !- Name
  Wall,                                   !- Surface Type
  ,                                       !- Construction Name
  {94dc0873-3b90-4cb1-a663-a55148562d88}, !- Space Name
  Surface,                                !- Outside Boundary Condition
  {041b37c7-a188-46f9-8aa4-c612fd376145}, !- Outside Boundary Condition Object
  NoSun,                                  !- Sun Exposure
  NoWind,                                 !- Wind Exposure
  ,                                       !- View Factor to Ground
  ,                                       !- Number of Vertices
  0, 0, 3,                                !- X,Y,Z Vertex 1 {m}
  0, 0, 0,                                !- X,Y,Z Vertex 2 {m}
  3, -3, 0,                               !- X,Y,Z Vertex 3 {m}
  3, -3, 3;                               !- X,Y,Z Vertex 4 {m}

OS:Surface,
  {30729dde-53f8-471c-ae5b-3f9a71615481}, !- Handle
  Surface 16,                             !- Name
  Wall,                                   !- Surface Type
  ,                                       !- Construction Name
  {94dc0873-3b90-4cb1-a663-a55148562d88}, !- Space Name
  Surface,                                !- Outside Boundary Condition
  {d27cb2f3-9ddb-41f3-bb6d-0611eb854b4a}, !- Outside Boundary Condition Object
  NoSun,                                  !- Sun Exposure
  NoWind,                                 !- Wind Exposure
  ,                                       !- View Factor to Ground
  ,                                       !- Number of Vertices
  0, 44, 3,                               !- X,Y,Z Vertex 1 {m}
  0, 44, 0,                               !- X,Y,Z Vertex 2 {m}
  0, 0, 0,                                !- X,Y,Z Vertex 3 {m}
  0, 0, 3;                                !- X,Y,Z Vertex 4 {m}

OS:Surface,
  {5b12798c-34f5-4f22-9dc3-154d7929a98e}, !- Handle
  Surface 17,                             !- Name
  Wall,                                   !- Surface Type
  ,                                       !- Construction Name
  {94dc0873-3b90-4cb1-a663-a55148562d88}, !- Space Name
  Surface,                                !- Outside Boundary Condition
  {13e033c1-9e94-4930-b091-896d11d3e2a8}, !- Outside Boundary Condition Object
  NoSun,                                  !- Sun Exposure
  NoWind,                                 !- Wind Exposure
  ,                                       !- View Factor to Ground
  ,                                       !- Number of Vertices
  3, 47, 3,                               !- X,Y,Z Vertex 1 {m}
  3, 47, 0,                               !- X,Y,Z Vertex 2 {m}
  0, 44, 0,                               !- X,Y,Z Vertex 3 {m}
  0, 44, 3;                               !- X,Y,Z Vertex 4 {m}

OS:Surface,
  {ccc5421b-ebd0-4f8c-9c46-35eb95c00d84}, !- Handle
  Surface 18,                             !- Name
  RoofCeiling,                            !- Surface Type
  ,                                       !- Construction Name
  {94dc0873-3b90-4cb1-a663-a55148562d88}, !- Space Name
  Outdoors,                               !- Outside Boundary Condition
  ,                                       !- Outside Boundary Condition Object
  SunExposed,                             !- Sun Exposure
  WindExposed,                            !- Wind Exposure
  ,                                       !- View Factor to Ground
  ,                                       !- Number of Vertices
  0, 44, 3,                               !- X,Y,Z Vertex 1 {m}
  0, 0, 3,                                !- X,Y,Z Vertex 2 {m}
  3, -3, 3,                               !- X,Y,Z Vertex 3 {m}
  3, 47, 3;                               !- X,Y,Z Vertex 4 {m}

OS:Space,
  {6687d8f0-775c-467a-bf64-3213872efc16}, !- Handle
  Story 1 South Perimeter Space,          !- Name
  ,                                       !- Space Type Name
  ,                                       !- Default Construction Set Name
  ,                                       !- Default Schedule Set Name
  -0,                                     !- Direction of Relative North {deg}
  0,                                      !- X Origin {m}
  0,                                      !- Y Origin {m}
  0,                                      !- Z Origin {m}
  {8982d714-c3a9-4e65-953a-39cdb14f8659}, !- Building Story Name
  {fe7c1426-508e-4a8b-a03b-503a013d1532}; !- Thermal Zone Name

OS:Surface,
  {702c2de7-3580-4177-9815-bcb090465e68}, !- Handle
  Surface 19,                             !- Name
  Floor,                                  !- Surface Type
  ,                                       !- Construction Name
  {6687d8f0-775c-467a-bf64-3213872efc16}, !- Space Name
  Ground,                                 !- Outside Boundary Condition
  ,                                       !- Outside Boundary Condition Object
  NoSun,                                  !- Sun Exposure
  NoWind,                                 !- Wind Exposure
  ,                                       !- View Factor to Ground
  ,                                       !- Number of Vertices
  100, 0, 0,                              !- X,Y,Z Vertex 1 {m}
  0, 0, 0,                                !- X,Y,Z Vertex 2 {m}
  3, 3, 0,                                !- X,Y,Z Vertex 3 {m}
  97, 3, 0;                               !- X,Y,Z Vertex 4 {m}

OS:Surface,
  {f2316e6a-fecb-43be-9042-8d04c9d39412}, !- Handle
  Surface 20,                             !- Name
  Wall,                                   !- Surface Type
  ,                                       !- Construction Name
  {6687d8f0-775c-467a-bf64-3213872efc16}, !- Space Name
  Outdoors,                               !- Outside Boundary Condition
  ,                                       !- Outside Boundary Condition Object
  SunExposed,                             !- Sun Exposure
  WindExposed,                            !- Wind Exposure
  ,                                       !- View Factor to Ground
  ,                                       !- Number of Vertices
  0, 0, 3,                                !- X,Y,Z Vertex 1 {m}
  0, 0, 0,                                !- X,Y,Z Vertex 2 {m}
  100, 0, 0,                              !- X,Y,Z Vertex 3 {m}
  100, 0, 3;                              !- X,Y,Z Vertex 4 {m}

OS:Surface,
  {abf48830-15d1-45d5-9ffd-0771508c102e}, !- Handle
  Surface 21,                             !- Name
  Wall,                                   !- Surface Type
  ,                                       !- Construction Name
  {6687d8f0-775c-467a-bf64-3213872efc16}, !- Space Name
  Surface,                                !- Outside Boundary Condition
  {f3ed1243-b28a-4608-adff-350d9dda88be}, !- Outside Boundary Condition Object
  NoSun,                                  !- Sun Exposure
  NoWind,                                 !- Wind Exposure
  ,                                       !- View Factor to Ground
  ,                                       !- Number of Vertices
  3, 3, 3,                                !- X,Y,Z Vertex 1 {m}
  3, 3, 0,                                !- X,Y,Z Vertex 2 {m}
  0, 0, 0,                                !- X,Y,Z Vertex 3 {m}
  0, 0, 3;                                !- X,Y,Z Vertex 4 {m}

OS:Surface,
  {a2864d9e-e771-41d4-89df-83a570500649}, !- Handle
  Surface 22,                             !- Name
  Wall,                                   !- Surface Type
  ,                                       !- Construction Name
  {6687d8f0-775c-467a-bf64-3213872efc16}, !- Space Name
  Surface,                                !- Outside Boundary Condition
  {69088342-65a6-48d4-8d66-26c0c8c263dc}, !- Outside Boundary Condition Object
  NoSun,                                  !- Sun Exposure
  NoWind,                                 !- Wind Exposure
  ,                                       !- View Factor to Ground
  ,                                       !- Number of Vertices
  97, 3, 3,                               !- X,Y,Z Vertex 1 {m}
  97, 3, 0,                               !- X,Y,Z Vertex 2 {m}
  3, 3, 0,                                !- X,Y,Z Vertex 3 {m}
  3, 3, 3;                                !- X,Y,Z Vertex 4 {m}

OS:Surface,
  {041b37c7-a188-46f9-8aa4-c612fd376145}, !- Handle
  Surface 23,                             !- Name
  Wall,                                   !- Surface Type
  ,                                       !- Construction Name
  {6687d8f0-775c-467a-bf64-3213872efc16}, !- Space Name
  Surface,                                !- Outside Boundary Condition
  {eeae3a35-1a1a-42bb-91fc-3e07b2869b94}, !- Outside Boundary Condition Object
  NoSun,                                  !- Sun Exposure
  NoWind,                                 !- Wind Exposure
  ,                                       !- View Factor to Ground
  ,                                       !- Number of Vertices
  100, 0, 3,                              !- X,Y,Z Vertex 1 {m}
  100, 0, 0,                              !- X,Y,Z Vertex 2 {m}
  97, 3, 0,                               !- X,Y,Z Vertex 3 {m}
  97, 3, 3;                               !- X,Y,Z Vertex 4 {m}

OS:Surface,
  {2d3df410-897b-4506-b302-82d2c174dfb4}, !- Handle
  Surface 24,                             !- Name
  RoofCeiling,                            !- Surface Type
  ,                                       !- Construction Name
  {6687d8f0-775c-467a-bf64-3213872efc16}, !- Space Name
  Outdoors,                               !- Outside Boundary Condition
  ,                                       !- Outside Boundary Condition Object
  SunExposed,                             !- Sun Exposure
  WindExposed,                            !- Wind Exposure
  ,                                       !- View Factor to Ground
  ,                                       !- Number of Vertices
  97, 3, 3,                               !- X,Y,Z Vertex 1 {m}
  3, 3, 3,                                !- X,Y,Z Vertex 2 {m}
  0, 0, 3,                                !- X,Y,Z Vertex 3 {m}
  100, 0, 3;                              !- X,Y,Z Vertex 4 {m}

OS:Space,
  {a14a17c4-c6dd-47d8-9558-e032058e607f}, !- Handle
  Story 1 Core Space,                     !- Name
  ,                                       !- Space Type Name
  ,                                       !- Default Construction Set Name
  ,                                       !- Default Schedule Set Name
  -0,                                     !- Direction of Relative North {deg}
  3,                                      !- X Origin {m}
  3,                                      !- Y Origin {m}
  0,                                      !- Z Origin {m}
  {8982d714-c3a9-4e65-953a-39cdb14f8659}, !- Building Story Name
  {9deef934-088c-46e6-b9ca-a486c89ead16}; !- Thermal Zone Name

OS:Surface,
  {85f9f58f-7a72-46b3-bc6f-1b83a4d0d6de}, !- Handle
  Surface 25,                             !- Name
  Floor,                                  !- Surface Type
  ,                                       !- Construction Name
  {a14a17c4-c6dd-47d8-9558-e032058e607f}, !- Space Name
  Ground,                                 !- Outside Boundary Condition
  ,                                       !- Outside Boundary Condition Object
  NoSun,                                  !- Sun Exposure
  NoWind,                                 !- Wind Exposure
  ,                                       !- View Factor to Ground
  ,                                       !- Number of Vertices
  0, 0, 0,                                !- X,Y,Z Vertex 1 {m}
  0, 44, 0,                               !- X,Y,Z Vertex 2 {m}
  94, 44, 0,                              !- X,Y,Z Vertex 3 {m}
  94, 0, 0;                               !- X,Y,Z Vertex 4 {m}

OS:Surface,
  {99683a28-dbc3-4c20-bc91-2d0c559ead6f}, !- Handle
  Surface 26,                             !- Name
  Wall,                                   !- Surface Type
  ,                                       !- Construction Name
  {a14a17c4-c6dd-47d8-9558-e032058e607f}, !- Space Name
  Surface,                                !- Outside Boundary Condition
  {3399bc2c-c026-4ece-96e5-2fb5b5e36289}, !- Outside Boundary Condition Object
  NoSun,                                  !- Sun Exposure
  NoWind,                                 !- Wind Exposure
  ,                                       !- View Factor to Ground
  ,                                       !- Number of Vertices
  0, 44, 3,                               !- X,Y,Z Vertex 1 {m}
  0, 44, 0,                               !- X,Y,Z Vertex 2 {m}
  0, 0, 0,                                !- X,Y,Z Vertex 3 {m}
  0, 0, 3;                                !- X,Y,Z Vertex 4 {m}

OS:Surface,
  {fe46ea49-b653-4ac7-8baf-7b50b7953a61}, !- Handle
  Surface 27,                             !- Name
  Wall,                                   !- Surface Type
  ,                                       !- Construction Name
  {a14a17c4-c6dd-47d8-9558-e032058e607f}, !- Space Name
  Surface,                                !- Outside Boundary Condition
  {d4b9e8ef-c949-492d-9fbc-bc15a773ff83}, !- Outside Boundary Condition Object
  NoSun,                                  !- Sun Exposure
  NoWind,                                 !- Wind Exposure
  ,                                       !- View Factor to Ground
  ,                                       !- Number of Vertices
  94, 44, 3,                              !- X,Y,Z Vertex 1 {m}
  94, 44, 0,                              !- X,Y,Z Vertex 2 {m}
  0, 44, 0,                               !- X,Y,Z Vertex 3 {m}
  0, 44, 3;                               !- X,Y,Z Vertex 4 {m}

OS:Surface,
  {d27cb2f3-9ddb-41f3-bb6d-0611eb854b4a}, !- Handle
  Surface 28,                             !- Name
  Wall,                                   !- Surface Type
  ,                                       !- Construction Name
  {a14a17c4-c6dd-47d8-9558-e032058e607f}, !- Space Name