
OS:Version,
<<<<<<< HEAD
  {65df6032-7cd0-40c5-a1b0-217b7bdbe4f3}, !- Handle
  1.4.0;                                  !- Version Identifier

OS:BuildingStory,
  {5b6f5051-a481-433d-a3c6-310cb46c864f}, !- Handle
=======
  {33e3ca77-420e-4b07-9fad-8622df9e1cd7}, !- Handle
  1.4.0;                                  !- Version Identifier

OS:BuildingStory,
  {358f1815-e1fa-4838-98ca-3ac08d866bdf}, !- Handle
>>>>>>> origin/develop
  Story 1,                                !- Name
  0,                                      !- Nominal Z Coordinate {m}
  4,                                      !- Nominal Floor to Floor Height {m}
  ,                                       !- Default Construction Set Name
  ,                                       !- Default Schedule Set Name
  ;                                       !- Group Rendering Name

OS:Space,
<<<<<<< HEAD
  {a92bbadc-2ea9-4737-9972-7ee3ed569fb1}, !- Handle
=======
  {a005bcca-c1c0-49b0-a279-6c6bcf615a1a}, !- Handle
>>>>>>> origin/develop
  Story 1 West Perimeter Space,           !- Name
  ,                                       !- Space Type Name
  ,                                       !- Default Construction Set Name
  ,                                       !- Default Schedule Set Name
  -0,                                     !- Direction of Relative North {deg}
  0,                                      !- X Origin {m}
  0,                                      !- Y Origin {m}
  0,                                      !- Z Origin {m}
<<<<<<< HEAD
  {5b6f5051-a481-433d-a3c6-310cb46c864f}, !- Building Story Name
  {9427924d-0e98-4c02-89fa-1fd6d63f6066}; !- Thermal Zone Name

OS:Surface,
  {56eb69ca-7763-4bd3-b7d8-31f3305a7c9a}, !- Handle
  Surface 1,                              !- Name
  Floor,                                  !- Surface Type
  ,                                       !- Construction Name
  {a92bbadc-2ea9-4737-9972-7ee3ed569fb1}, !- Space Name
=======
  {358f1815-e1fa-4838-98ca-3ac08d866bdf}, !- Building Story Name
  {7cb85313-eb9a-4827-ab7a-33e3a2b11873}; !- Thermal Zone Name

OS:Surface,
  {759dbcad-5106-40f5-aecf-94acd17b216b}, !- Handle
  Surface 1,                              !- Name
  Floor,                                  !- Surface Type
  ,                                       !- Construction Name
  {a005bcca-c1c0-49b0-a279-6c6bcf615a1a}, !- Space Name
>>>>>>> origin/develop
  Ground,                                 !- Outside Boundary Condition
  ,                                       !- Outside Boundary Condition Object
  NoSun,                                  !- Sun Exposure
  NoWind,                                 !- Wind Exposure
  ,                                       !- View Factor to Ground
  ,                                       !- Number of Vertices
  0, 0, 0,                                !- X,Y,Z Vertex 1 {m}
  0, 50, 0,                               !- X,Y,Z Vertex 2 {m}
  3, 47, 0,                               !- X,Y,Z Vertex 3 {m}
  3, 3, 0;                                !- X,Y,Z Vertex 4 {m}

OS:Surface,
<<<<<<< HEAD
  {11fa10df-2547-4446-80f4-4b1d60e79bfa}, !- Handle
  Surface 2,                              !- Name
  Wall,                                   !- Surface Type
  ,                                       !- Construction Name
  {a92bbadc-2ea9-4737-9972-7ee3ed569fb1}, !- Space Name
=======
  {bf4762a3-3ccb-4b88-8160-42a0c80c7d48}, !- Handle
  Surface 2,                              !- Name
  Wall,                                   !- Surface Type
  ,                                       !- Construction Name
  {a005bcca-c1c0-49b0-a279-6c6bcf615a1a}, !- Space Name
>>>>>>> origin/develop
  Outdoors,                               !- Outside Boundary Condition
  ,                                       !- Outside Boundary Condition Object
  SunExposed,                             !- Sun Exposure
  WindExposed,                            !- Wind Exposure
  ,                                       !- View Factor to Ground
  ,                                       !- Number of Vertices
  0, 50, 4,                               !- X,Y,Z Vertex 1 {m}
  0, 50, 0,                               !- X,Y,Z Vertex 2 {m}
  0, 0, 0,                                !- X,Y,Z Vertex 3 {m}
  0, 0, 4;                                !- X,Y,Z Vertex 4 {m}

OS:Surface,
<<<<<<< HEAD
  {6baf74af-808a-4c5b-bd76-c0c17738b599}, !- Handle
  Surface 3,                              !- Name
  Wall,                                   !- Surface Type
  ,                                       !- Construction Name
  {a92bbadc-2ea9-4737-9972-7ee3ed569fb1}, !- Space Name
  Surface,                                !- Outside Boundary Condition
  {77029db7-6891-4366-9cd7-1aee94bf3c43}, !- Outside Boundary Condition Object
=======
  {8fa5bd52-c45f-4877-9676-b9831b85ab9c}, !- Handle
  Surface 3,                              !- Name
  Wall,                                   !- Surface Type
  ,                                       !- Construction Name
  {a005bcca-c1c0-49b0-a279-6c6bcf615a1a}, !- Space Name
  Surface,                                !- Outside Boundary Condition
  {5007076b-69de-4533-8da3-dab36b16d484}, !- Outside Boundary Condition Object
>>>>>>> origin/develop
  NoSun,                                  !- Sun Exposure
  NoWind,                                 !- Wind Exposure
  ,                                       !- View Factor to Ground
  ,                                       !- Number of Vertices
  3, 47, 4,                               !- X,Y,Z Vertex 1 {m}
  3, 47, 0,                               !- X,Y,Z Vertex 2 {m}
  0, 50, 0,                               !- X,Y,Z Vertex 3 {m}
  0, 50, 4;                               !- X,Y,Z Vertex 4 {m}

OS:Surface,
<<<<<<< HEAD
  {d2bdf1a7-479e-4e71-a0c6-4ddc46cb3b87}, !- Handle
  Surface 4,                              !- Name
  Wall,                                   !- Surface Type
  ,                                       !- Construction Name
  {a92bbadc-2ea9-4737-9972-7ee3ed569fb1}, !- Space Name
  Surface,                                !- Outside Boundary Condition
  {93d247b9-1236-4834-9529-06dc74e8158e}, !- Outside Boundary Condition Object
=======
  {a8b41356-9fae-4535-af76-3017b168027b}, !- Handle
  Surface 4,                              !- Name
  Wall,                                   !- Surface Type
  ,                                       !- Construction Name
  {a005bcca-c1c0-49b0-a279-6c6bcf615a1a}, !- Space Name
  Surface,                                !- Outside Boundary Condition
  {629c4497-b384-4ca6-9821-d375b197e5fe}, !- Outside Boundary Condition Object
>>>>>>> origin/develop
  NoSun,                                  !- Sun Exposure
  NoWind,                                 !- Wind Exposure
  ,                                       !- View Factor to Ground
  ,                                       !- Number of Vertices
  3, 3, 4,                                !- X,Y,Z Vertex 1 {m}
  3, 3, 0,                                !- X,Y,Z Vertex 2 {m}
  3, 47, 0,                               !- X,Y,Z Vertex 3 {m}
  3, 47, 4;                               !- X,Y,Z Vertex 4 {m}

OS:Surface,
<<<<<<< HEAD
  {ea10ae2d-e30a-4e59-a5b8-ca1725ac1725}, !- Handle
  Surface 5,                              !- Name
  Wall,                                   !- Surface Type
  ,                                       !- Construction Name
  {a92bbadc-2ea9-4737-9972-7ee3ed569fb1}, !- Space Name
  Surface,                                !- Outside Boundary Condition
  {05dfbcb5-3c9a-42d0-9b42-c780b7ee4cd6}, !- Outside Boundary Condition Object
=======
  {57eab910-ee22-4651-a28c-2ffe76d8b946}, !- Handle
  Surface 5,                              !- Name
  Wall,                                   !- Surface Type
  ,                                       !- Construction Name
  {a005bcca-c1c0-49b0-a279-6c6bcf615a1a}, !- Space Name
  Surface,                                !- Outside Boundary Condition
  {06038084-8e2a-4825-a90d-f2a19ee11885}, !- Outside Boundary Condition Object
>>>>>>> origin/develop
  NoSun,                                  !- Sun Exposure
  NoWind,                                 !- Wind Exposure
  ,                                       !- View Factor to Ground
  ,                                       !- Number of Vertices
  0, 0, 4,                                !- X,Y,Z Vertex 1 {m}
  0, 0, 0,                                !- X,Y,Z Vertex 2 {m}
  3, 3, 0,                                !- X,Y,Z Vertex 3 {m}
  3, 3, 4;                                !- X,Y,Z Vertex 4 {m}

OS:Surface,
<<<<<<< HEAD
  {072a0191-a23d-403e-a9a7-b688f3ca5c4b}, !- Handle
  Surface 6,                              !- Name
  RoofCeiling,                            !- Surface Type
  ,                                       !- Construction Name
  {a92bbadc-2ea9-4737-9972-7ee3ed569fb1}, !- Space Name
=======
  {d65dbe2d-49e6-4650-bd5f-96fb52c67b59}, !- Handle
  Surface 6,                              !- Name
  RoofCeiling,                            !- Surface Type
  ,                                       !- Construction Name
  {a005bcca-c1c0-49b0-a279-6c6bcf615a1a}, !- Space Name
>>>>>>> origin/develop
  Outdoors,                               !- Outside Boundary Condition
  ,                                       !- Outside Boundary Condition Object
  SunExposed,                             !- Sun Exposure
  WindExposed,                            !- Wind Exposure
  ,                                       !- View Factor to Ground
  ,                                       !- Number of Vertices
  3, 3, 4,                                !- X,Y,Z Vertex 1 {m}
  3, 47, 4,                               !- X,Y,Z Vertex 2 {m}
  0, 50, 4,                               !- X,Y,Z Vertex 3 {m}
  0, 0, 4;                                !- X,Y,Z Vertex 4 {m}

OS:Space,
<<<<<<< HEAD
  {6f7ea97e-1ea4-474e-9d22-44489871256c}, !- Handle
=======
  {dd84a33c-76ac-4a1f-a45f-76e9150f0b48}, !- Handle
>>>>>>> origin/develop
  Story 1 North Perimeter Space,          !- Name
  ,                                       !- Space Type Name
  ,                                       !- Default Construction Set Name
  ,                                       !- Default Schedule Set Name
  -0,                                     !- Direction of Relative North {deg}
  3,                                      !- X Origin {m}
  47,                                     !- Y Origin {m}
  0,                                      !- Z Origin {m}
<<<<<<< HEAD
  {5b6f5051-a481-433d-a3c6-310cb46c864f}, !- Building Story Name
  {d2ae81bb-103b-4e0c-833a-4d6380406ef9}; !- Thermal Zone Name

OS:Surface,
  {c8d66f80-443f-4d2b-9033-5d92a5232dba}, !- Handle
  Surface 7,                              !- Name
  Floor,                                  !- Surface Type
  ,                                       !- Construction Name
  {6f7ea97e-1ea4-474e-9d22-44489871256c}, !- Space Name
=======
  {358f1815-e1fa-4838-98ca-3ac08d866bdf}, !- Building Story Name
  {728308a6-4441-48b1-8c56-3cf633a9d1b3}; !- Thermal Zone Name

OS:Surface,
  {15c4ecd7-49ed-4018-a3ba-bfed7516b131}, !- Handle
  Surface 7,                              !- Name
  Floor,                                  !- Surface Type
  ,                                       !- Construction Name
  {dd84a33c-76ac-4a1f-a45f-76e9150f0b48}, !- Space Name
>>>>>>> origin/develop
  Ground,                                 !- Outside Boundary Condition
  ,                                       !- Outside Boundary Condition Object
  NoSun,                                  !- Sun Exposure
  NoWind,                                 !- Wind Exposure
  ,                                       !- View Factor to Ground
  ,                                       !- Number of Vertices
  -3, 3, 0,                               !- X,Y,Z Vertex 1 {m}
  97, 3, 0,                               !- X,Y,Z Vertex 2 {m}
  94, 0, 0,                               !- X,Y,Z Vertex 3 {m}
  0, 0, 0;                                !- X,Y,Z Vertex 4 {m}

OS:Surface,
<<<<<<< HEAD
  {5f800abf-df15-4733-8c06-9f3120bb398c}, !- Handle
  Surface 8,                              !- Name
  Wall,                                   !- Surface Type
  ,                                       !- Construction Name
  {6f7ea97e-1ea4-474e-9d22-44489871256c}, !- Space Name
=======
  {83a4b228-601f-46db-a2f3-d7e09d6b76b3}, !- Handle
  Surface 8,                              !- Name
  Wall,                                   !- Surface Type
  ,                                       !- Construction Name
  {dd84a33c-76ac-4a1f-a45f-76e9150f0b48}, !- Space Name
>>>>>>> origin/develop
  Outdoors,                               !- Outside Boundary Condition
  ,                                       !- Outside Boundary Condition Object
  SunExposed,                             !- Sun Exposure
  WindExposed,                            !- Wind Exposure
  ,                                       !- View Factor to Ground
  ,                                       !- Number of Vertices
  97, 3, 4,                               !- X,Y,Z Vertex 1 {m}
  97, 3, 0,                               !- X,Y,Z Vertex 2 {m}
  -3, 3, 0,                               !- X,Y,Z Vertex 3 {m}
  -3, 3, 4;                               !- X,Y,Z Vertex 4 {m}

OS:Surface,
<<<<<<< HEAD
  {79a50df4-f575-4276-a35c-f006743db32d}, !- Handle
  Surface 9,                              !- Name
  Wall,                                   !- Surface Type
  ,                                       !- Construction Name
  {6f7ea97e-1ea4-474e-9d22-44489871256c}, !- Space Name
  Surface,                                !- Outside Boundary Condition
  {46a66807-7efe-4bc8-856b-07180e31101b}, !- Outside Boundary Condition Object
=======
  {6118c9b1-fcd5-461f-9017-bcad7364b0bf}, !- Handle
  Surface 9,                              !- Name
  Wall,                                   !- Surface Type
  ,                                       !- Construction Name
  {dd84a33c-76ac-4a1f-a45f-76e9150f0b48}, !- Space Name
  Surface,                                !- Outside Boundary Condition
  {0565a047-2f24-4180-b5d7-a705deb0281f}, !- Outside Boundary Condition Object
>>>>>>> origin/develop
  NoSun,                                  !- Sun Exposure
  NoWind,                                 !- Wind Exposure
  ,                                       !- View Factor to Ground
  ,                                       !- Number of Vertices
  94, 0, 4,                               !- X,Y,Z Vertex 1 {m}
  94, 0, 0,                               !- X,Y,Z Vertex 2 {m}
  97, 3, 0,                               !- X,Y,Z Vertex 3 {m}
  97, 3, 4;                               !- X,Y,Z Vertex 4 {m}

OS:Surface,
<<<<<<< HEAD
  {22de42bf-ffef-4dd6-b2e5-87f30b806ea7}, !- Handle
  Surface 10,                             !- Name
  Wall,                                   !- Surface Type
  ,                                       !- Construction Name
  {6f7ea97e-1ea4-474e-9d22-44489871256c}, !- Space Name
  Surface,                                !- Outside Boundary Condition
  {afc64c19-11a3-411d-a428-7aae5be3582a}, !- Outside Boundary Condition Object
=======
  {abf1a827-e838-445c-8daf-56bb776b6647}, !- Handle
  Surface 10,                             !- Name
  Wall,                                   !- Surface Type
  ,                                       !- Construction Name
  {dd84a33c-76ac-4a1f-a45f-76e9150f0b48}, !- Space Name
  Surface,                                !- Outside Boundary Condition
  {5d41401a-88cd-4044-85f5-7f7797b7ab8d}, !- Outside Boundary Condition Object
>>>>>>> origin/develop
  NoSun,                                  !- Sun Exposure
  NoWind,                                 !- Wind Exposure
  ,                                       !- View Factor to Ground
  ,                                       !- Number of Vertices
  0, 0, 4,                                !- X,Y,Z Vertex 1 {m}
  0, 0, 0,                                !- X,Y,Z Vertex 2 {m}
  94, 0, 0,                               !- X,Y,Z Vertex 3 {m}
  94, 0, 4;                               !- X,Y,Z Vertex 4 {m}

OS:Surface,
<<<<<<< HEAD
  {77029db7-6891-4366-9cd7-1aee94bf3c43}, !- Handle
  Surface 11,                             !- Name
  Wall,                                   !- Surface Type
  ,                                       !- Construction Name
  {6f7ea97e-1ea4-474e-9d22-44489871256c}, !- Space Name
  Surface,                                !- Outside Boundary Condition
  {6baf74af-808a-4c5b-bd76-c0c17738b599}, !- Outside Boundary Condition Object
=======
  {5007076b-69de-4533-8da3-dab36b16d484}, !- Handle
  Surface 11,                             !- Name
  Wall,                                   !- Surface Type
  ,                                       !- Construction Name
  {dd84a33c-76ac-4a1f-a45f-76e9150f0b48}, !- Space Name
  Surface,                                !- Outside Boundary Condition
  {8fa5bd52-c45f-4877-9676-b9831b85ab9c}, !- Outside Boundary Condition Object
>>>>>>> origin/develop
  NoSun,                                  !- Sun Exposure
  NoWind,                                 !- Wind Exposure
  ,                                       !- View Factor to Ground
  ,                                       !- Number of Vertices
  -3, 3, 4,                               !- X,Y,Z Vertex 1 {m}
  -3, 3, 0,                               !- X,Y,Z Vertex 2 {m}
  0, 0, 0,                                !- X,Y,Z Vertex 3 {m}
  0, 0, 4;                                !- X,Y,Z Vertex 4 {m}

OS:Surface,
<<<<<<< HEAD
  {9caf9cc5-5a92-4cf4-a36c-b4989483b2c1}, !- Handle
  Surface 12,                             !- Name
  RoofCeiling,                            !- Surface Type
  ,                                       !- Construction Name
  {6f7ea97e-1ea4-474e-9d22-44489871256c}, !- Space Name
=======
  {9974c711-1e1e-4dd4-aa37-1a354863fadb}, !- Handle
  Surface 12,                             !- Name
  RoofCeiling,                            !- Surface Type
  ,                                       !- Construction Name
  {dd84a33c-76ac-4a1f-a45f-76e9150f0b48}, !- Space Name
>>>>>>> origin/develop
  Outdoors,                               !- Outside Boundary Condition
  ,                                       !- Outside Boundary Condition Object
  SunExposed,                             !- Sun Exposure
  WindExposed,                            !- Wind Exposure
  ,                                       !- View Factor to Ground
  ,                                       !- Number of Vertices
  0, 0, 4,                                !- X,Y,Z Vertex 1 {m}
  94, 0, 4,                               !- X,Y,Z Vertex 2 {m}
  97, 3, 4,                               !- X,Y,Z Vertex 3 {m}
  -3, 3, 4;                               !- X,Y,Z Vertex 4 {m}

OS:Space,
<<<<<<< HEAD
  {1b44be2d-ec03-43ef-b2a5-84e88584b12d}, !- Handle
=======
  {cf459a6b-cf0f-476e-a61a-05c09bcf77c7}, !- Handle
>>>>>>> origin/develop
  Story 1 East Perimeter Space,           !- Name
  ,                                       !- Space Type Name
  ,                                       !- Default Construction Set Name
  ,                                       !- Default Schedule Set Name
  -0,                                     !- Direction of Relative North {deg}
  97,                                     !- X Origin {m}
  3,                                      !- Y Origin {m}
  0,                                      !- Z Origin {m}
<<<<<<< HEAD
  {5b6f5051-a481-433d-a3c6-310cb46c864f}, !- Building Story Name
  {2539ddb8-cadc-4f1c-8bc6-4f617e307e2f}; !- Thermal Zone Name

OS:Surface,
  {e58e996b-1100-46d9-a370-9b17d3a2a485}, !- Handle
  Surface 13,                             !- Name
  Floor,                                  !- Surface Type
  ,                                       !- Construction Name
  {1b44be2d-ec03-43ef-b2a5-84e88584b12d}, !- Space Name
=======
  {358f1815-e1fa-4838-98ca-3ac08d866bdf}, !- Building Story Name
  {ddbc230e-6e0d-4345-a199-b27f132bac75}; !- Thermal Zone Name

OS:Surface,
  {9cac4161-f378-4f4e-a1c0-02760d4f94e3}, !- Handle
  Surface 13,                             !- Name
  Floor,                                  !- Surface Type
  ,                                       !- Construction Name
  {cf459a6b-cf0f-476e-a61a-05c09bcf77c7}, !- Space Name
>>>>>>> origin/develop
  Ground,                                 !- Outside Boundary Condition
  ,                                       !- Outside Boundary Condition Object
  NoSun,                                  !- Sun Exposure
  NoWind,                                 !- Wind Exposure
  ,                                       !- View Factor to Ground
  ,                                       !- Number of Vertices
  3, 47, 0,                               !- X,Y,Z Vertex 1 {m}
  3, -3, 0,                               !- X,Y,Z Vertex 2 {m}
  0, 0, 0,                                !- X,Y,Z Vertex 3 {m}
  0, 44, 0;                               !- X,Y,Z Vertex 4 {m}

OS:Surface,
<<<<<<< HEAD
  {ff36e253-8ca1-4530-9b09-578e0c4f827f}, !- Handle
  Surface 14,                             !- Name
  Wall,                                   !- Surface Type
  ,                                       !- Construction Name
  {1b44be2d-ec03-43ef-b2a5-84e88584b12d}, !- Space Name
=======
  {710def9c-aae6-4eb1-8ded-dfaf25934fb0}, !- Handle
  Surface 14,                             !- Name
  Wall,                                   !- Surface Type
  ,                                       !- Construction Name
  {cf459a6b-cf0f-476e-a61a-05c09bcf77c7}, !- Space Name
>>>>>>> origin/develop
  Outdoors,                               !- Outside Boundary Condition
  ,                                       !- Outside Boundary Condition Object
  SunExposed,                             !- Sun Exposure
  WindExposed,                            !- Wind Exposure
  ,                                       !- View Factor to Ground
  ,                                       !- Number of Vertices
  3, -3, 4,                               !- X,Y,Z Vertex 1 {m}
  3, -3, 0,                               !- X,Y,Z Vertex 2 {m}
  3, 47, 0,                               !- X,Y,Z Vertex 3 {m}
  3, 47, 4;                               !- X,Y,Z Vertex 4 {m}

OS:Surface,
<<<<<<< HEAD
  {d90cf7f1-65d5-4be3-a489-c73b7ddf6f4e}, !- Handle
  Surface 15,                             !- Name
  Wall,                                   !- Surface Type
  ,                                       !- Construction Name
  {1b44be2d-ec03-43ef-b2a5-84e88584b12d}, !- Space Name
  Surface,                                !- Outside Boundary Condition
  {0a56cce6-b4e7-4139-9d7b-d2b6e31271c2}, !- Outside Boundary Condition Object
=======
  {570ca174-f1af-42fa-bfa0-fba71edf25e1}, !- Handle
  Surface 15,                             !- Name
  Wall,                                   !- Surface Type
  ,                                       !- Construction Name
  {cf459a6b-cf0f-476e-a61a-05c09bcf77c7}, !- Space Name
  Surface,                                !- Outside Boundary Condition
  {cb1ae5dd-2c0d-41f4-9d66-6a257aa74195}, !- Outside Boundary Condition Object
>>>>>>> origin/develop
  NoSun,                                  !- Sun Exposure
  NoWind,                                 !- Wind Exposure
  ,                                       !- View Factor to Ground
  ,                                       !- Number of Vertices
  0, 0, 4,                                !- X,Y,Z Vertex 1 {m}
  0, 0, 0,                                !- X,Y,Z Vertex 2 {m}
  3, -3, 0,                               !- X,Y,Z Vertex 3 {m}
  3, -3, 4;                               !- X,Y,Z Vertex 4 {m}

OS:Surface,
<<<<<<< HEAD
  {df08bab2-2ef1-49a5-b698-558ea528a958}, !- Handle
  Surface 16,                             !- Name
  Wall,                                   !- Surface Type
  ,                                       !- Construction Name
  {1b44be2d-ec03-43ef-b2a5-84e88584b12d}, !- Space Name
  Surface,                                !- Outside Boundary Condition
  {90c558d4-4683-4264-8121-6d2133fe82c3}, !- Outside Boundary Condition Object
=======
  {1bedef01-78fb-4170-89db-267bb8372f11}, !- Handle
  Surface 16,                             !- Name
  Wall,                                   !- Surface Type
  ,                                       !- Construction Name
  {cf459a6b-cf0f-476e-a61a-05c09bcf77c7}, !- Space Name
  Surface,                                !- Outside Boundary Condition
  {4c9a6fb0-4a06-45f7-bd10-6b05162c7a23}, !- Outside Boundary Condition Object
>>>>>>> origin/develop
  NoSun,                                  !- Sun Exposure
  NoWind,                                 !- Wind Exposure
  ,                                       !- View Factor to Ground
  ,                                       !- Number of Vertices
  0, 44, 4,                               !- X,Y,Z Vertex 1 {m}
  0, 44, 0,                               !- X,Y,Z Vertex 2 {m}
  0, 0, 0,                                !- X,Y,Z Vertex 3 {m}
  0, 0, 4;                                !- X,Y,Z Vertex 4 {m}

OS:Surface,
<<<<<<< HEAD
  {46a66807-7efe-4bc8-856b-07180e31101b}, !- Handle
  Surface 17,                             !- Name
  Wall,                                   !- Surface Type
  ,                                       !- Construction Name
  {1b44be2d-ec03-43ef-b2a5-84e88584b12d}, !- Space Name
  Surface,                                !- Outside Boundary Condition
  {79a50df4-f575-4276-a35c-f006743db32d}, !- Outside Boundary Condition Object
=======
  {0565a047-2f24-4180-b5d7-a705deb0281f}, !- Handle
  Surface 17,                             !- Name
  Wall,                                   !- Surface Type
  ,                                       !- Construction Name
  {cf459a6b-cf0f-476e-a61a-05c09bcf77c7}, !- Space Name
  Surface,                                !- Outside Boundary Condition
  {6118c9b1-fcd5-461f-9017-bcad7364b0bf}, !- Outside Boundary Condition Object
>>>>>>> origin/develop
  NoSun,                                  !- Sun Exposure
  NoWind,                                 !- Wind Exposure
  ,                                       !- View Factor to Ground
  ,                                       !- Number of Vertices
  3, 47, 4,                               !- X,Y,Z Vertex 1 {m}
  3, 47, 0,                               !- X,Y,Z Vertex 2 {m}
  0, 44, 0,                               !- X,Y,Z Vertex 3 {m}
  0, 44, 4;                               !- X,Y,Z Vertex 4 {m}

OS:Surface,
<<<<<<< HEAD
  {d1ed6948-fdf9-4766-ba63-5ce99b408bbf}, !- Handle
  Surface 18,                             !- Name
  RoofCeiling,                            !- Surface Type
  ,                                       !- Construction Name
  {1b44be2d-ec03-43ef-b2a5-84e88584b12d}, !- Space Name
=======
  {f2b5a2aa-6c89-465d-b524-8f24a8e5d359}, !- Handle
  Surface 18,                             !- Name
  RoofCeiling,                            !- Surface Type
  ,                                       !- Construction Name
  {cf459a6b-cf0f-476e-a61a-05c09bcf77c7}, !- Space Name
>>>>>>> origin/develop
  Outdoors,                               !- Outside Boundary Condition
  ,                                       !- Outside Boundary Condition Object
  SunExposed,                             !- Sun Exposure
  WindExposed,                            !- Wind Exposure
  ,                                       !- View Factor to Ground
  ,                                       !- Number of Vertices
  0, 44, 4,                               !- X,Y,Z Vertex 1 {m}
  0, 0, 4,                                !- X,Y,Z Vertex 2 {m}
  3, -3, 4,                               !- X,Y,Z Vertex 3 {m}
  3, 47, 4;                               !- X,Y,Z Vertex 4 {m}

OS:Space,
<<<<<<< HEAD
  {2e1fefe8-4ee6-46ea-8839-82dc7940557d}, !- Handle
=======
  {0d5b8eac-1dfe-41c7-b87f-33cef9886bff}, !- Handle
>>>>>>> origin/develop
  Story 1 South Perimeter Space,          !- Name
  ,                                       !- Space Type Name
  ,                                       !- Default Construction Set Name
  ,                                       !- Default Schedule Set Name
  -0,                                     !- Direction of Relative North {deg}
  0,                                      !- X Origin {m}
  0,                                      !- Y Origin {m}
  0,                                      !- Z Origin {m}
<<<<<<< HEAD
  {5b6f5051-a481-433d-a3c6-310cb46c864f}, !- Building Story Name
  {599d77c9-c95f-4ec4-a8bf-d34fdfb18e70}; !- Thermal Zone Name

OS:Surface,
  {9fa1da93-ce12-446c-9df5-455a606050c8}, !- Handle
  Surface 19,                             !- Name
  Floor,                                  !- Surface Type
  ,                                       !- Construction Name
  {2e1fefe8-4ee6-46ea-8839-82dc7940557d}, !- Space Name
=======
  {358f1815-e1fa-4838-98ca-3ac08d866bdf}, !- Building Story Name
  {580b70f2-0ba4-4fec-9a84-61922a612d79}; !- Thermal Zone Name

OS:Surface,
  {9bf5557b-0fff-4d68-b745-e96f20bdd08c}, !- Handle
  Surface 19,                             !- Name
  Floor,                                  !- Surface Type
  ,                                       !- Construction Name
  {0d5b8eac-1dfe-41c7-b87f-33cef9886bff}, !- Space Name
>>>>>>> origin/develop
  Ground,                                 !- Outside Boundary Condition
  ,                                       !- Outside Boundary Condition Object
  NoSun,                                  !- Sun Exposure
  NoWind,                                 !- Wind Exposure
  ,                                       !- View Factor to Ground
  ,                                       !- Number of Vertices
  100, 0, 0,                              !- X,Y,Z Vertex 1 {m}
  0, 0, 0,                                !- X,Y,Z Vertex 2 {m}