
OS:Version,
  {1d85a6d8-a6c7-4dd5-976c-2454e4215587}, !- Handle
  3.6.0;                                  !- Version Identifier

OS:BuildingStory,
  {0127dd40-d65f-4abc-8593-2451cb92723c}, !- Handle
  Story 1,                                !- Name
  0,                                      !- Nominal Z Coordinate {m}
  4,                                      !- Nominal Floor to Floor Height {m}
  ,                                       !- Default Construction Set Name
  ,                                       !- Default Schedule Set Name
  ;                                       !- Group Rendering Name

OS:Space,
  {6c76f6e7-1771-4367-9042-856b995b1884}, !- Handle
  Story 1 West Perimeter Space,           !- Name
  ,                                       !- Space Type Name
  ,                                       !- Default Construction Set Name
  ,                                       !- Default Schedule Set Name
  -0,                                     !- Direction of Relative North {deg}
  0,                                      !- X Origin {m}
  0,                                      !- Y Origin {m}
  0,                                      !- Z Origin {m}
  {0127dd40-d65f-4abc-8593-2451cb92723c}, !- Building Story Name
  {bc2e0f06-7bbe-4407-b3ba-854fe9b1114f}; !- Thermal Zone Name

OS:Surface,
  {cbd667f9-3357-42cc-982c-9bfa28ee6985}, !- Handle
  Story 1 West Perimeter Space Exterior Ground Floor, !- Name
  Floor,                                  !- Surface Type
  ,                                       !- Construction Name
  {6c76f6e7-1771-4367-9042-856b995b1884}, !- Space Name
  Ground,                                 !- Outside Boundary Condition
  ,                                       !- Outside Boundary Condition Object
  NoSun,                                  !- Sun Exposure
  NoWind,                                 !- Wind Exposure
  ,                                       !- View Factor to Ground
  ,                                       !- Number of Vertices
  0, 0, 0,                                !- X,Y,Z Vertex 1 {m}
  0, 50, 0,                               !- X,Y,Z Vertex 2 {m}
  3, 47, 0,                               !- X,Y,Z Vertex 3 {m}
  3, 3, 0;                                !- X,Y,Z Vertex 4 {m}

OS:Surface,
  {a5fb7e0b-b4d8-49d2-8605-9ed2487d064b}, !- Handle
  Story 1 West Perimeter Space Exterior Wall, !- Name
  Wall,                                   !- Surface Type
  ,                                       !- Construction Name
  {6c76f6e7-1771-4367-9042-856b995b1884}, !- Space Name
  Outdoors,                               !- Outside Boundary Condition
  ,                                       !- Outside Boundary Condition Object
  SunExposed,                             !- Sun Exposure
  WindExposed,                            !- Wind Exposure
  ,                                       !- View Factor to Ground
  ,                                       !- Number of Vertices
  0, 50, 4,                               !- X,Y,Z Vertex 1 {m}
  0, 50, 0,                               !- X,Y,Z Vertex 2 {m}
  0, 0, 0,                                !- X,Y,Z Vertex 3 {m}
  0, 0, 4;                                !- X,Y,Z Vertex 4 {m}

OS:Surface,
  {600ce468-27fb-4a48-a08b-be20895cf78c}, !- Handle
  Story 1 West Perimeter Space to Story 1 North Perimeter Space Interior Wall, !- Name
  Wall,                                   !- Surface Type
  ,                                       !- Construction Name
  {6c76f6e7-1771-4367-9042-856b995b1884}, !- Space Name
  Surface,                                !- Outside Boundary Condition
  {dd55a740-3eb1-49c8-bdd8-49b7fa54c837}, !- Outside Boundary Condition Object
  NoSun,                                  !- Sun Exposure
  NoWind,                                 !- Wind Exposure
  ,                                       !- View Factor to Ground
  ,                                       !- Number of Vertices
  3, 47, 4,                               !- X,Y,Z Vertex 1 {m}
  3, 47, 0,                               !- X,Y,Z Vertex 2 {m}
  0, 50, 0,                               !- X,Y,Z Vertex 3 {m}
  0, 50, 4;                               !- X,Y,Z Vertex 4 {m}

OS:Surface,
  {f72e5c71-758c-4159-a0b6-984ca04ab4e9}, !- Handle
  Story 1 West Perimeter Space to Story 1 Core Space Interior Wall, !- Name
  Wall,                                   !- Surface Type
  ,                                       !- Construction Name
  {6c76f6e7-1771-4367-9042-856b995b1884}, !- Space Name
  Surface,                                !- Outside Boundary Condition
  {186e0d3d-343a-42e9-a79b-8683dd5129b9}, !- Outside Boundary Condition Object
  NoSun,                                  !- Sun Exposure
  NoWind,                                 !- Wind Exposure
  ,                                       !- View Factor to Ground
  ,                                       !- Number of Vertices
  3, 3, 4,                                !- X,Y,Z Vertex 1 {m}
  3, 3, 0,                                !- X,Y,Z Vertex 2 {m}
  3, 47, 0,                               !- X,Y,Z Vertex 3 {m}
  3, 47, 4;                               !- X,Y,Z Vertex 4 {m}

OS:Surface,
  {2e23ce29-c628-4c1c-be1a-dd84374228be}, !- Handle
  Story 1 West Perimeter Space to Story 1 South Perimeter Space Interior Wall, !- Name
  Wall,                                   !- Surface Type
  ,                                       !- Construction Name
  {6c76f6e7-1771-4367-9042-856b995b1884}, !- Space Name
  Surface,                                !- Outside Boundary Condition
  {ddce81da-1b0e-4d17-bb00-1c957185733e}, !- Outside Boundary Condition Object
  NoSun,                                  !- Sun Exposure
  NoWind,                                 !- Wind Exposure
  ,                                       !- View Factor to Ground
  ,                                       !- Number of Vertices
  0, 0, 4,                                !- X,Y,Z Vertex 1 {m}
  0, 0, 0,                                !- X,Y,Z Vertex 2 {m}
  3, 3, 0,                                !- X,Y,Z Vertex 3 {m}
  3, 3, 4;                                !- X,Y,Z Vertex 4 {m}

OS:Surface,
  {2a02d05c-cf8a-4f90-8c2c-0fd2f5e673e0}, !- Handle
  Story 1 West Perimeter Space Exterior Roof, !- Name
  RoofCeiling,                            !- Surface Type
  ,                                       !- Construction Name
  {6c76f6e7-1771-4367-9042-856b995b1884}, !- Space Name
  Outdoors,                               !- Outside Boundary Condition
  ,                                       !- Outside Boundary Condition Object
  SunExposed,                             !- Sun Exposure
  WindExposed,                            !- Wind Exposure
  ,                                       !- View Factor to Ground
  ,                                       !- Number of Vertices
  3, 3, 4,                                !- X,Y,Z Vertex 1 {m}
  3, 47, 4,                               !- X,Y,Z Vertex 2 {m}
  0, 50, 4,                               !- X,Y,Z Vertex 3 {m}
  0, 0, 4;                                !- X,Y,Z Vertex 4 {m}

OS:Space,
  {d836d1ed-f88e-4e68-8e98-65daad8fcd2b}, !- Handle
  Story 1 North Perimeter Space,          !- Name
  ,                                       !- Space Type Name
  ,                                       !- Default Construction Set Name
  ,                                       !- Default Schedule Set Name
  -0,                                     !- Direction of Relative North {deg}
  3,                                      !- X Origin {m}
  47,                                     !- Y Origin {m}
  0,                                      !- Z Origin {m}
  {0127dd40-d65f-4abc-8593-2451cb92723c}, !- Building Story Name
  {59c48151-5646-469c-8efd-f32adfccecc5}; !- Thermal Zone Name

OS:Surface,
  {f6a5f948-853e-44c9-bebd-36158bcb3ddd}, !- Handle
  Story 1 North Perimeter Space Exterior Ground Floor, !- Name
  Floor,                                  !- Surface Type
  ,                                       !- Construction Name
  {d836d1ed-f88e-4e68-8e98-65daad8fcd2b}, !- Space Name
  Ground,                                 !- Outside Boundary Condition
  ,                                       !- Outside Boundary Condition Object
  NoSun,                                  !- Sun Exposure
  NoWind,                                 !- Wind Exposure
  ,                                       !- View Factor to Ground
  ,                                       !- Number of Vertices
  -3, 3, 0,                               !- X,Y,Z Vertex 1 {m}
  97, 3, 0,                               !- X,Y,Z Vertex 2 {m}
  94, 0, 0,                               !- X,Y,Z Vertex 3 {m}
  0, 0, 0;                                !- X,Y,Z Vertex 4 {m}

OS:Surface,
  {3a5cf916-7bee-4618-b1dc-43324d8d78a0}, !- Handle
  Story 1 North Perimeter Space Exterior Wall, !- Name
  Wall,                                   !- Surface Type
  ,                                       !- Construction Name
  {d836d1ed-f88e-4e68-8e98-65daad8fcd2b}, !- Space Name
  Outdoors,                               !- Outside Boundary Condition
  ,                                       !- Outside Boundary Condition Object
  SunExposed,                             !- Sun Exposure
  WindExposed,                            !- Wind Exposure
  ,                                       !- View Factor to Ground
  ,                                       !- Number of Vertices
  97, 3, 4,                               !- X,Y,Z Vertex 1 {m}
  97, 3, 0,                               !- X,Y,Z Vertex 2 {m}
  -3, 3, 0,                               !- X,Y,Z Vertex 3 {m}
  -3, 3, 4;                               !- X,Y,Z Vertex 4 {m}

OS:Surface,
  {272a4213-af56-418f-bfaf-ab9fdb265f48}, !- Handle
  Story 1 North Perimeter Space to Story 1 East Perimeter Space Interior Wall, !- Name
  Wall,                                   !- Surface Type
  ,                                       !- Construction Name
  {d836d1ed-f88e-4e68-8e98-65daad8fcd2b}, !- Space Name
  Surface,                                !- Outside Boundary Condition
  {5587eb6d-f44a-4533-9669-41a2f34ae9cf}, !- Outside Boundary Condition Object
  NoSun,                                  !- Sun Exposure
  NoWind,                                 !- Wind Exposure
  ,                                       !- View Factor to Ground
  ,                                       !- Number of Vertices
  94, 0, 4,                               !- X,Y,Z Vertex 1 {m}
  94, 0, 0,                               !- X,Y,Z Vertex 2 {m}
  97, 3, 0,                               !- X,Y,Z Vertex 3 {m}
  97, 3, 4;                               !- X,Y,Z Vertex 4 {m}

OS:Surface,
  {cb1e4494-eb01-42a7-8b57-75ead21559c4}, !- Handle
  Story 1 North Perimeter Space to Story 1 Core Space Interior Wall, !- Name
  Wall,                                   !- Surface Type
  ,                                       !- Construction Name
  {d836d1ed-f88e-4e68-8e98-65daad8fcd2b}, !- Space Name
  Surface,                                !- Outside Boundary Condition
  {ca19e5d5-edd8-499a-a91b-8f49e7ac4249}, !- Outside Boundary Condition Object
  NoSun,                                  !- Sun Exposure
  NoWind,                                 !- Wind Exposure
  ,                                       !- View Factor to Ground
  ,                                       !- Number of Vertices
  0, 0, 4,                                !- X,Y,Z Vertex 1 {m}
  0, 0, 0,                                !- X,Y,Z Vertex 2 {m}
  94, 0, 0,                               !- X,Y,Z Vertex 3 {m}
  94, 0, 4;                               !- X,Y,Z Vertex 4 {m}

OS:Surface,
  {dd55a740-3eb1-49c8-bdd8-49b7fa54c837}, !- Handle
  Story 1 North Perimeter Space to Story 1 West Perimeter Space Interior Wall, !- Name
  Wall,                                   !- Surface Type
  ,                                       !- Construction Name
  {d836d1ed-f88e-4e68-8e98-65daad8fcd2b}, !- Space Name
  Surface,                                !- Outside Boundary Condition
  {600ce468-27fb-4a48-a08b-be20895cf78c}, !- Outside Boundary Condition Object
  NoSun,                                  !- Sun Exposure
  NoWind,                                 !- Wind Exposure
  ,                                       !- View Factor to Ground
  ,                                       !- Number of Vertices
  -3, 3, 4,                               !- X,Y,Z Vertex 1 {m}
  -3, 3, 0,                               !- X,Y,Z Vertex 2 {m}
  0, 0, 0,                                !- X,Y,Z Vertex 3 {m}
  0, 0, 4;                                !- X,Y,Z Vertex 4 {m}

OS:Surface,
  {a07a5c9d-4d0b-4b35-8309-425946d9ba76}, !- Handle
  Story 1 North Perimeter Space Exterior Roof, !- Name
  RoofCeiling,                            !- Surface Type
  ,                                       !- Construction Name
  {d836d1ed-f88e-4e68-8e98-65daad8fcd2b}, !- Space Name
  Outdoors,                               !- Outside Boundary Condition
  ,                                       !- Outside Boundary Condition Object
  SunExposed,                             !- Sun Exposure
  WindExposed,                            !- Wind Exposure
  ,                                       !- View Factor to Ground
  ,                                       !- Number of Vertices
  0, 0, 4,                                !- X,Y,Z Vertex 1 {m}
  94, 0, 4,                               !- X,Y,Z Vertex 2 {m}
  97, 3, 4,                               !- X,Y,Z Vertex 3 {m}
  -3, 3, 4;                               !- X,Y,Z Vertex 4 {m}

OS:Space,
  {9726efb4-a095-459e-b653-a775b9231f40}, !- Handle
  Story 1 East Perimeter Space,           !- Name
  ,                                       !- Space Type Name
  ,                                       !- Default Construction Set Name
  ,                                       !- Default Schedule Set Name
  -0,                                     !- Direction of Relative North {deg}
  97,                                     !- X Origin {m}
  3,                                      !- Y Origin {m}
  0,                                      !- Z Origin {m}
  {0127dd40-d65f-4abc-8593-2451cb92723c}, !- Building Story Name
  {0eafa729-43e2-42ab-ba45-6ae40efce590}; !- Thermal Zone Name

OS:Surface,
  {4639741d-a80f-4b19-9b61-5c1726513939}, !- Handle
  Story 1 East Perimeter Space Exterior Ground Floor, !- Name
  Floor,                                  !- Surface Type
  ,                                       !- Construction Name
  {9726efb4-a095-459e-b653-a775b9231f40}, !- Space Name
  Ground,                                 !- Outside Boundary Condition
  ,                                       !- Outside Boundary Condition Object
  NoSun,                                  !- Sun Exposure
  NoWind,                                 !- Wind Exposure
  ,                                       !- View Factor to Ground
  ,                                       !- Number of Vertices
  3, 47, 0,                               !- X,Y,Z Vertex 1 {m}
  3, -3, 0,                               !- X,Y,Z Vertex 2 {m}
  0, 0, 0,                                !- X,Y,Z Vertex 3 {m}
  0, 44, 0;                               !- X,Y,Z Vertex 4 {m}

OS:Surface,
  {e1c70dc0-acae-4b15-8f03-cb30dc5f77c5}, !- Handle
  Story 1 East Perimeter Space Exterior Wall, !- Name
  Wall,                                   !- Surface Type
  ,                                       !- Construction Name
  {9726efb4-a095-459e-b653-a775b9231f40}, !- Space Name
  Outdoors,                               !- Outside Boundary Condition
  ,                                       !- Outside Boundary Condition Object
  SunExposed,                             !- Sun Exposure
  WindExposed,                            !- Wind Exposure
  ,                                       !- View Factor to Ground
  ,                                       !- Number of Vertices
  3, -3, 4,                               !- X,Y,Z Vertex 1 {m}
  3, -3, 0,                               !- X,Y,Z Vertex 2 {m}
  3, 47, 0,                               !- X,Y,Z Vertex 3 {m}
  3, 47, 4;                               !- X,Y,Z Vertex 4 {m}

OS:Surface,
  {2b283604-9f81-4474-984d-a6fca32d9571}, !- Handle
  Story 1 East Perimeter Space to Story 1 South Perimeter Space Interior Wall, !- Name
  Wall,                                   !- Surface Type
  ,                                       !- Construction Name
  {9726efb4-a095-459e-b653-a775b9231f40}, !- Space Name
  Surface,                                !- Outside Boundary Condition
  {fd354a66-4ca0-460d-a0fd-d33c27d2b5a8}, !- Outside Boundary Condition Object
  NoSun,                                  !- Sun Exposure
  NoWind,                                 !- Wind Exposure
  ,                                       !- View Factor to Ground
  ,                                       !- Number of Vertices
  0, 0, 4,                                !- X,Y,Z Vertex 1 {m}
  0, 0, 0,                                !- X,Y,Z Vertex 2 {m}
  3, -3, 0,                               !- X,Y,Z Vertex 3 {m}
  3, -3, 4;                               !- X,Y,Z Vertex 4 {m}

OS:Surface,
  {f07c8268-b628-4abd-b074-03a6b817d2f5}, !- Handle
  Story 1 East Perimeter Space to Story 1 Core Space Interior Wall, !- Name
  Wall,                                   !- Surface Type
  ,                                       !- Construction Name
  {9726efb4-a095-459e-b653-a775b9231f40}, !- Space Name
  Surface,                                !- Outside Boundary Condition
  {1b789389-2faf-42f4-a29d-30f9187519f5}, !- Outside Boundary Condition Object
  NoSun,                                  !- Sun Exposure
  NoWind,                                 !- Wind Exposure
  ,                                       !- View Factor to Ground
  ,                                       !- Number of Vertices
  0, 44, 4,                               !- X,Y,Z Vertex 1 {m}
  0, 44, 0,                               !- X,Y,Z Vertex 2 {m}
  0, 0, 0,                                !- X,Y,Z Vertex 3 {m}
  0, 0, 4;                                !- X,Y,Z Vertex 4 {m}

OS:Surface,
  {5587eb6d-f44a-4533-9669-41a2f34ae9cf}, !- Handle
  Story 1 East Perimeter Space to Story 1 North Perimeter Space Interior Wall, !- Name
  Wall,                                   !- Surface Type
  ,                                       !- Construction Name
  {9726efb4-a095-459e-b653-a775b9231f40}, !- Space Name
  Surface,                                !- Outside Boundary Condition
  {272a4213-af56-418f-bfaf-ab9fdb265f48}, !- Outside Boundary Condition Object
  NoSun,                                  !- Sun Exposure
  NoWind,                                 !- Wind Exposure
  ,                                       !- View Factor to Ground
  ,                                       !- Number of Vertices
  3, 47, 4,                               !- X,Y,Z Vertex 1 {m}
  3, 47, 0,                               !- X,Y,Z Vertex 2 {m}
  0, 44, 0,                               !- X,Y,Z Vertex 3 {m}
  0, 44, 4;                               !- X,Y,Z Vertex 4 {m}

OS:Surface,
  {fa3016f0-983e-479e-b2e4-eb63ed7f8837}, !- Handle
  Story 1 East Perimeter Space Exterior Roof, !- Name
  RoofCeiling,                            !- Surface Type
  ,                                       !- Construction Name
  {9726efb4-a095-459e-b653-a775b9231f40}, !- Space Name
  Outdoors,                               !- Outside Boundary Condition
  ,                                       !- Outside Boundary Condition Object
  SunExposed,                             !- Sun Exposure
  WindExposed,                            !- Wind Exposure
  ,                                       !- View Factor to Ground
  ,                                       !- Number of Vertices
  0, 44, 4,                               !- X,Y,Z Vertex 1 {m}
  0, 0, 4,                                !- X,Y,Z Vertex 2 {m}
  3, -3, 4,                               !- X,Y,Z Vertex 3 {m}
  3, 47, 4;                               !- X,Y,Z Vertex 4 {m}

OS:Space,
  {803f1461-1203-4c9f-845d-3bed4d515079}, !- Handle
  Story 1 South Perimeter Space,          !- Name
  ,                                       !- Space Type Name
  ,                                       !- Default Construction Set Name
  ,                                       !- Default Schedule Set Name
  -0,                                     !- Direction of Relative North {deg}
  0,                                      !- X Origin {m}
  0,                                      !- Y Origin {m}
  0,                                      !- Z Origin {m}
  {0127dd40-d65f-4abc-8593-2451cb92723c}, !- Building Story Name
  {0055c05d-7335-490b-8170-226fb8514518}; !- Thermal Zone Name

OS:Surface,
  {c53dac0c-b597-4ca1-b3a2-9567c66e41a6}, !- Handle
  Story 1 South Perimeter Space Exterior Ground Floor, !- Name
  Floor,                                  !- Surface Type
  ,                                       !- Construction Name
  {803f1461-1203-4c9f-845d-3bed4d515079}, !- Space Name
  Ground,                                 !- Outside Boundary Condition
  ,                                       !- Outside Boundary Condition Object
  NoSun,                                  !- Sun Exposure
  NoWind,                                 !- Wind Exposure
  ,                                       !- View Factor to Ground
  ,                                       !- Number of Vertices
  100, 0, 0,                              !- X,Y,Z Vertex 1 {m}
  0, 0, 0,                                !- X,Y,Z Vertex 2 {m}
  3, 3, 0,                                !- X,Y,Z Vertex 3 {m}
  97, 3, 0;                               !- X,Y,Z Vertex 4 {m}

OS:Surface,
  {4c999518-7a1b-4a5d-a093-1f9cffe505b5}, !- Handle
  Story 1 South Perimeter Space Exterior Wall, !- Name
  Wall,                                   !- Surface Type
  ,                                       !- Construction Name
  {803f1461-1203-4c9f-845d-3bed4d515079}, !- Space Name
  Outdoors,                               !- Outside Boundary Condition
  ,                                       !- Outside Boundary Condition Object
  SunExposed,                             !- Sun Exposure
  WindExposed,                            !- Wind Exposure
  ,                                       !- View Factor to Ground
  ,                                       !- Number of Vertices
  0, 0, 4,                                !- X,Y,Z Vertex 1 {m}
  0, 0, 0,                                !- X,Y,Z Vertex 2 {m}
  100, 0, 0,                              !- X,Y,Z Vertex 3 {m}
  100, 0, 4;                              !- X,Y,Z Vertex 4 {m}

OS:Surface,
  {ddce81da-1b0e-4d17-bb00-1c957185733e}, !- Handle
  Story 1 South Perimeter Space to Story 1 West Perimeter Space Interior Wall, !- Name
  Wall,                                   !- Surface Type
  ,                                       !- Construction Name
  {803f1461-1203-4c9f-845d-3bed4d515079}, !- Space Name
  Surface,                                !- Outside Boundary Condition
  {2e23ce29-c628-4c1c-be1a-dd84374228be}, !- Outside Boundary Condition Object
  NoSun,                                  !- Sun Exposure
  NoWind,                                 !- Wind Exposure
  ,                                       !- View Factor to Ground
  ,                                       !- Number of Vertices
  3, 3, 4,                                !- X,Y,Z Vertex 1 {m}
  3, 3, 0,                                !- X,Y,Z Vertex 2 {m}
  0, 0, 0,                                !- X,Y,Z Vertex 3 {m}
  0, 0, 4;                                !- X,Y,Z Vertex 4 {m}

OS:Surface,
  {4edfa479-2776-4654-82c9-dcc0faf29b7b}, !- Handle
  Story 1 South Perimeter Space to Story 1 Core Space Interior Wall, !- Name
  Wall,                                   !- Surface Type
  ,                                       !- Construction Name
  {803f1461-1203-4c9f-845d-3bed4d515079}, !- Space Name
  Surface,                                !- Outside Boundary Condition
  {1160b73e-f632-408b-850d-d8ee8dfbe63f}, !- Outside Boundary Condition Object
  NoSun,                                  !- Sun Exposure
  NoWind,                                 !- Wind Exposure
  ,                                       !- View Factor to Ground
  ,                                       !- Number of Vertices
  97, 3, 4,                               !- X,Y,Z Vertex 1 {m}
  97, 3, 0,                               !- X,Y,Z Vertex 2 {m}
  3, 3, 0,                                !- X,Y,Z Vertex 3 {m}
  3, 3, 4;                                !- X,Y,Z Vertex 4 {m}

OS:Surface,
  {fd354a66-4ca0-460d-a0fd-d33c27d2b5a8}, !- Handle
  Story 1 South Perimeter Space to Story 1 East Perimeter Space Interior Wall, !- Name
  Wall,                                   !- Surface Type
  ,                                       !- Construction Name
  {803f1461-1203-4c9f-845d-3bed4d515079}, !- Space Name
  Surface,                                !- Outside Boundary Condition
  {2b283604-9f81-4474-984d-a6fca32d9571}, !- Outside Boundary Condition Object
  NoSun,                                  !- Sun Exposure
  NoWind,                                 !- Wind Exposure
  ,                                       !- View Factor to Ground
  ,                                       !- Number of Vertices
  100, 0, 4,                              !- X,Y,Z Vertex 1 {m}
  100, 0, 0,                              !- X,Y,Z Vertex 2 {m}
  97, 3, 0,                               !- X,Y,Z Vertex 3 {m}
  97, 3, 4;                               !- X,Y,Z Vertex 4 {m}

OS:Surface,
  {b062d8df-9478-4ad1-bb70-dd6928208209}, !- Handle
  Story 1 South Perimeter Space Exterior Roof, !- Name
  RoofCeiling,                            !- Surface Type
  ,                                       !- Construction Name
  {803f1461-1203-4c9f-845d-3bed4d515079}, !- Space Name
  Outdoors,                               !- Outside Boundary Condition
  ,                                       !- Outside Boundary Condition Object
  SunExposed,                             !- Sun Exposure
  WindExposed,                            !- Wind Exposure
  ,                                       !- View Factor to Ground
  ,                                       !- Number of Vertices
  97, 3, 4,                               !- X,Y,Z Vertex 1 {m}
  3, 3, 4,                                !- X,Y,Z Vertex 2 {m}
  0, 0, 4,                                !- X,Y,Z Vertex 3 {m}
  100, 0, 4;                              !- X,Y,Z Vertex 4 {m}

OS:Space,
  {87085e30-4559-41ae-a2d5-748d289b5ba0}, !- Handle
  Story 1 Core Space,                     !- Name
  ,                                       !- Space Type Name
  ,                                       !- Default Construction Set Name
  ,                                       !- Default Schedule Set Name
  -0,                                     !- Direction of Relative North {deg}
  3,                                      !- X Origin {m}
  3,                                      !- Y Origin {m}
  0,                                      !- Z Origin {m}
  {0127dd40-d65f-4abc-8593-2451cb92723c}, !- Building Story Name
  {2d88be8d-81e0-4cc0-b110-3d62a9f03097}; !- Thermal Zone Name

OS:Surface,
  {8160b579-62b4-428c-abba-781b05781b51}, !- Handle
  Story 1 Core Space Exterior Ground Floor, !- Name
  Floor,                                  !- Surface Type
  ,                                       !- Construction Name
  {87085e30-4559-41ae-a2d5-748d289b5ba0}, !- Space Name
  Ground,                                 !- Outside Boundary Condition
  ,                                       !- Outside Boundary Condition Object
  NoSun,                                  !- Sun Exposure
  NoWind,                                 !- Wind Exposure
  ,                                       !- View Factor to Ground
  ,                                       !- Number of Vertices
  0, 0, 0,                                !- X,Y,Z Vertex 1 {m}
  0, 44, 0,                               !- X,Y,Z Vertex 2 {m}
  94, 44, 0,                              !- X,Y,Z Vertex 3 {m}
  94, 0, 0;                               !- X,Y,Z Vertex 4 {m}

OS:Surface,
  {186e0d3d-343a-42e9-a79b-8683dd5129b9}, !- Handle
  Story 1 Core Space to Story 1 West Perimeter Space Interior Wall, !- Name
  Wall,                                   !- Surface Type
  ,                                       !- Construction Name
  {87085e30-4559-41ae-a2d5-748d289b5ba0}, !- Space Name
  Surface,                                !- Outside Boundary Condition
  {f72e5c71-758c-4159-a0b6-984ca04ab4e9}, !- Outside Boundary Condition Object
  NoSun,                                  !- Sun Exposure
  NoWind,                                 !- Wind Exposure
  ,                                       !- View Factor to Ground
  ,                                       !- Number of Vertices
  0, 44, 4,                               !- X,Y,Z Vertex 1 {m}
  0, 44, 0,                               !- X,Y,Z Vertex 2 {m}
  0, 0, 0,                                !- X,Y,Z Vertex 3 {m}
  0, 0, 4;                                !- X,Y,Z Vertex 4 {m}

OS:Surface,
  {ca19e5d5-edd8-499a-a91b-8f49e7ac4249}, !- Handle
  Story 1 Core Space to Story 1 North Perimeter Space Interior Wall, !- Name
  Wall,                                   !- Surface Type
  ,                                       !- Construction Name
  {87085e30-4559-41ae-a2d5-748d289b5ba0}, !- Space Name
  Surface,                                !- Outside Boundary Condition
  {cb1e4494-eb01-42a7-8b57-75ead21559c4}, !- Outside Boundary Condition Object
  NoSun,                                  !- Sun Exposure
  NoWind,                                 !- Wind Exposure
  ,                                       !- View Factor to Ground
  ,                                       !- Number of Vertices