
OS:Version,
  {a8a7837c-d8aa-485e-b67e-73ba2f8631aa}, !- Handle
  3.6.0;                                  !- Version Identifier

OS:BuildingStory,
  {767fc9a5-0349-4f26-b9ea-b1f1b3bdbf02}, !- Handle
  Story 1,                                !- Name
  0,                                      !- Nominal Z Coordinate {m}
  4,                                      !- Nominal Floor to Floor Height {m}
  ,                                       !- Default Construction Set Name
  ,                                       !- Default Schedule Set Name
  ;                                       !- Group Rendering Name

OS:Space,
  {7ad2d0fe-e898-4e83-869f-7481b5443236}, !- Handle
  Story 1 West Perimeter Space,           !- Name
  ,                                       !- Space Type Name
  ,                                       !- Default Construction Set Name
  ,                                       !- Default Schedule Set Name
  -0,                                     !- Direction of Relative North {deg}
  0,                                      !- X Origin {m}
  0,                                      !- Y Origin {m}
  0,                                      !- Z Origin {m}
  {767fc9a5-0349-4f26-b9ea-b1f1b3bdbf02}, !- Building Story Name
  {05f073de-8033-4032-a235-1adeff8eeaa8}; !- Thermal Zone Name

OS:Surface,
  {fc941b3f-44fb-443b-9934-a2bf615b6d7d}, !- Handle
  Story 1 West Perimeter Space Exterior Ground Floor, !- Name
  Floor,                                  !- Surface Type
  ,                                       !- Construction Name
  {7ad2d0fe-e898-4e83-869f-7481b5443236}, !- Space Name
  Ground,                                 !- Outside Boundary Condition
  ,                                       !- Outside Boundary Condition Object
  NoSun,                                  !- Sun Exposure
  NoWind,                                 !- Wind Exposure
  ,                                       !- View Factor to Ground
  ,                                       !- Number of Vertices
  0, 0, 0,                                !- X,Y,Z Vertex 1 {m}
  0, 50, 0,                               !- X,Y,Z Vertex 2 {m}
  3, 47, 0,                               !- X,Y,Z Vertex 3 {m}
  3, 3, 0;                                !- X,Y,Z Vertex 4 {m}

OS:Surface,
  {8a5534bd-16a0-4b75-99bd-696766c18714}, !- Handle
  Story 1 West Perimeter Space Exterior Wall, !- Name
  Wall,                                   !- Surface Type
  ,                                       !- Construction Name
  {7ad2d0fe-e898-4e83-869f-7481b5443236}, !- Space Name
  Outdoors,                               !- Outside Boundary Condition
  ,                                       !- Outside Boundary Condition Object
  SunExposed,                             !- Sun Exposure
  WindExposed,                            !- Wind Exposure
  ,                                       !- View Factor to Ground
  ,                                       !- Number of Vertices
  0, 50, 4,                               !- X,Y,Z Vertex 1 {m}
  0, 50, 0,                               !- X,Y,Z Vertex 2 {m}
  0, 0, 0,                                !- X,Y,Z Vertex 3 {m}
  0, 0, 4;                                !- X,Y,Z Vertex 4 {m}

OS:Surface,
  {9fcd75e7-1ae6-4057-af13-bd4862ec4268}, !- Handle
  Story 1 West Perimeter Space to Story 1 North Perimeter Space Interior Wall, !- Name
  Wall,                                   !- Surface Type
  ,                                       !- Construction Name
  {7ad2d0fe-e898-4e83-869f-7481b5443236}, !- Space Name
  Surface,                                !- Outside Boundary Condition
  {68f6a34c-fa77-4fce-ba79-85f0a6a8f21d}, !- Outside Boundary Condition Object
  NoSun,                                  !- Sun Exposure
  NoWind,                                 !- Wind Exposure
  ,                                       !- View Factor to Ground
  ,                                       !- Number of Vertices
  3, 47, 4,                               !- X,Y,Z Vertex 1 {m}
  3, 47, 0,                               !- X,Y,Z Vertex 2 {m}
  0, 50, 0,                               !- X,Y,Z Vertex 3 {m}
  0, 50, 4;                               !- X,Y,Z Vertex 4 {m}

OS:Surface,
  {61825cee-18f5-40c6-921f-af21db8fc7bc}, !- Handle
  Story 1 West Perimeter Space to Story 1 Core Space Interior Wall, !- Name
  Wall,                                   !- Surface Type
  ,                                       !- Construction Name
  {7ad2d0fe-e898-4e83-869f-7481b5443236}, !- Space Name
  Surface,                                !- Outside Boundary Condition
  {01b5e7fe-aa3b-403f-8bf0-fd6ec65751ac}, !- Outside Boundary Condition Object
  NoSun,                                  !- Sun Exposure
  NoWind,                                 !- Wind Exposure
  ,                                       !- View Factor to Ground
  ,                                       !- Number of Vertices
  3, 3, 4,                                !- X,Y,Z Vertex 1 {m}
  3, 3, 0,                                !- X,Y,Z Vertex 2 {m}
  3, 47, 0,                               !- X,Y,Z Vertex 3 {m}
  3, 47, 4;                               !- X,Y,Z Vertex 4 {m}

OS:Surface,
  {1e760ab6-9675-48ed-97f6-f6f304933f7d}, !- Handle
  Story 1 West Perimeter Space to Story 1 South Perimeter Space Interior Wall, !- Name
  Wall,                                   !- Surface Type
  ,                                       !- Construction Name
  {7ad2d0fe-e898-4e83-869f-7481b5443236}, !- Space Name
  Surface,                                !- Outside Boundary Condition
  {02c00405-eb37-4072-a062-460898574b0d}, !- Outside Boundary Condition Object
  NoSun,                                  !- Sun Exposure
  NoWind,                                 !- Wind Exposure
  ,                                       !- View Factor to Ground
  ,                                       !- Number of Vertices
  0, 0, 4,                                !- X,Y,Z Vertex 1 {m}
  0, 0, 0,                                !- X,Y,Z Vertex 2 {m}
  3, 3, 0,                                !- X,Y,Z Vertex 3 {m}
  3, 3, 4;                                !- X,Y,Z Vertex 4 {m}

OS:Surface,
  {84a36532-65a6-4a8e-aa96-86957913b6f0}, !- Handle
  Story 1 West Perimeter Space Exterior Roof, !- Name
  RoofCeiling,                            !- Surface Type
  ,                                       !- Construction Name
  {7ad2d0fe-e898-4e83-869f-7481b5443236}, !- Space Name
  Outdoors,                               !- Outside Boundary Condition
  ,                                       !- Outside Boundary Condition Object
  SunExposed,                             !- Sun Exposure
  WindExposed,                            !- Wind Exposure
  ,                                       !- View Factor to Ground
  ,                                       !- Number of Vertices
  3, 3, 4,                                !- X,Y,Z Vertex 1 {m}
  3, 47, 4,                               !- X,Y,Z Vertex 2 {m}
  0, 50, 4,                               !- X,Y,Z Vertex 3 {m}
  0, 0, 4;                                !- X,Y,Z Vertex 4 {m}

OS:Space,
  {49dfa102-9000-4269-9e4f-28c64da61cc8}, !- Handle
  Story 1 North Perimeter Space,          !- Name
  ,                                       !- Space Type Name
  ,                                       !- Default Construction Set Name
  ,                                       !- Default Schedule Set Name
  -0,                                     !- Direction of Relative North {deg}
  3,                                      !- X Origin {m}
  47,                                     !- Y Origin {m}
  0,                                      !- Z Origin {m}
  {767fc9a5-0349-4f26-b9ea-b1f1b3bdbf02}, !- Building Story Name
  {aa3b9a6e-0ad8-4939-8ee1-f8b9aa516cab}; !- Thermal Zone Name

OS:Surface,
  {285a7750-e955-45ed-a9cf-e2482ff7ff40}, !- Handle
  Story 1 North Perimeter Space Exterior Ground Floor, !- Name
  Floor,                                  !- Surface Type
  ,                                       !- Construction Name
  {49dfa102-9000-4269-9e4f-28c64da61cc8}, !- Space Name
  Ground,                                 !- Outside Boundary Condition
  ,                                       !- Outside Boundary Condition Object
  NoSun,                                  !- Sun Exposure
  NoWind,                                 !- Wind Exposure
  ,                                       !- View Factor to Ground
  ,                                       !- Number of Vertices
  -3, 3, 0,                               !- X,Y,Z Vertex 1 {m}
  97, 3, 0,                               !- X,Y,Z Vertex 2 {m}
  94, 0, 0,                               !- X,Y,Z Vertex 3 {m}
  0, 0, 0;                                !- X,Y,Z Vertex 4 {m}

OS:Surface,
  {0bef94b1-115f-4a7f-9f95-def7022ec743}, !- Handle
  Story 1 North Perimeter Space Exterior Wall, !- Name
  Wall,                                   !- Surface Type
  ,                                       !- Construction Name
  {49dfa102-9000-4269-9e4f-28c64da61cc8}, !- Space Name
  Outdoors,                               !- Outside Boundary Condition
  ,                                       !- Outside Boundary Condition Object
  SunExposed,                             !- Sun Exposure
  WindExposed,                            !- Wind Exposure
  ,                                       !- View Factor to Ground
  ,                                       !- Number of Vertices
  97, 3, 4,                               !- X,Y,Z Vertex 1 {m}
  97, 3, 0,                               !- X,Y,Z Vertex 2 {m}
  -3, 3, 0,                               !- X,Y,Z Vertex 3 {m}
  -3, 3, 4;                               !- X,Y,Z Vertex 4 {m}

OS:Surface,
  {13a317c7-fdcb-4d36-92da-b6f2b9cc4325}, !- Handle
  Story 1 North Perimeter Space to Story 1 East Perimeter Space Interior Wall, !- Name
  Wall,                                   !- Surface Type
  ,                                       !- Construction Name
  {49dfa102-9000-4269-9e4f-28c64da61cc8}, !- Space Name
  Surface,                                !- Outside Boundary Condition
  {5f81c771-a54b-4e04-857c-c07104057495}, !- Outside Boundary Condition Object
  NoSun,                                  !- Sun Exposure
  NoWind,                                 !- Wind Exposure
  ,                                       !- View Factor to Ground
  ,                                       !- Number of Vertices
  94, 0, 4,                               !- X,Y,Z Vertex 1 {m}
  94, 0, 0,                               !- X,Y,Z Vertex 2 {m}
  97, 3, 0,                               !- X,Y,Z Vertex 3 {m}
  97, 3, 4;                               !- X,Y,Z Vertex 4 {m}

OS:Surface,
  {3f29208c-47df-491f-9e3a-7db3433fdb13}, !- Handle
  Story 1 North Perimeter Space to Story 1 Core Space Interior Wall, !- Name
  Wall,                                   !- Surface Type
  ,                                       !- Construction Name
  {49dfa102-9000-4269-9e4f-28c64da61cc8}, !- Space Name
  Surface,                                !- Outside Boundary Condition
  {c831ea7c-7694-4e0e-851f-e4212c51d360}, !- Outside Boundary Condition Object
  NoSun,                                  !- Sun Exposure
  NoWind,                                 !- Wind Exposure
  ,                                       !- View Factor to Ground
  ,                                       !- Number of Vertices
  0, 0, 4,                                !- X,Y,Z Vertex 1 {m}
  0, 0, 0,                                !- X,Y,Z Vertex 2 {m}
  94, 0, 0,                               !- X,Y,Z Vertex 3 {m}
  94, 0, 4;                               !- X,Y,Z Vertex 4 {m}

OS:Surface,
  {68f6a34c-fa77-4fce-ba79-85f0a6a8f21d}, !- Handle
  Story 1 North Perimeter Space to Story 1 West Perimeter Space Interior Wall, !- Name
  Wall,                                   !- Surface Type
  ,                                       !- Construction Name
  {49dfa102-9000-4269-9e4f-28c64da61cc8}, !- Space Name
  Surface,                                !- Outside Boundary Condition
  {9fcd75e7-1ae6-4057-af13-bd4862ec4268}, !- Outside Boundary Condition Object
  NoSun,                                  !- Sun Exposure
  NoWind,                                 !- Wind Exposure
  ,                                       !- View Factor to Ground
  ,                                       !- Number of Vertices
  -3, 3, 4,                               !- X,Y,Z Vertex 1 {m}
  -3, 3, 0,                               !- X,Y,Z Vertex 2 {m}
  0, 0, 0,                                !- X,Y,Z Vertex 3 {m}
  0, 0, 4;                                !- X,Y,Z Vertex 4 {m}

OS:Surface,
  {5260ec03-3aff-4996-af25-75e91197e26f}, !- Handle
  Story 1 North Perimeter Space Exterior Roof, !- Name
  RoofCeiling,                            !- Surface Type
  ,                                       !- Construction Name
  {49dfa102-9000-4269-9e4f-28c64da61cc8}, !- Space Name
  Outdoors,                               !- Outside Boundary Condition
  ,                                       !- Outside Boundary Condition Object
  SunExposed,                             !- Sun Exposure
  WindExposed,                            !- Wind Exposure
  ,                                       !- View Factor to Ground
  ,                                       !- Number of Vertices
  0, 0, 4,                                !- X,Y,Z Vertex 1 {m}
  94, 0, 4,                               !- X,Y,Z Vertex 2 {m}
  97, 3, 4,                               !- X,Y,Z Vertex 3 {m}
  -3, 3, 4;                               !- X,Y,Z Vertex 4 {m}

OS:Space,
  {bc645d13-c70b-4e0e-9f72-cd0a2f2ab6b1}, !- Handle
  Story 1 East Perimeter Space,           !- Name
  ,                                       !- Space Type Name
  ,                                       !- Default Construction Set Name
  ,                                       !- Default Schedule Set Name
  -0,                                     !- Direction of Relative North {deg}
  97,                                     !- X Origin {m}
  3,                                      !- Y Origin {m}
  0,                                      !- Z Origin {m}
  {767fc9a5-0349-4f26-b9ea-b1f1b3bdbf02}, !- Building Story Name
  {bdfebb4d-e7fe-4bf2-8ed4-58e5c2cec619}; !- Thermal Zone Name

OS:Surface,
  {2b252682-66b1-4aa7-a3a8-2a88a11d5c43}, !- Handle
  Story 1 East Perimeter Space Exterior Ground Floor, !- Name
  Floor,                                  !- Surface Type
  ,                                       !- Construction Name
  {bc645d13-c70b-4e0e-9f72-cd0a2f2ab6b1}, !- Space Name
  Ground,                                 !- Outside Boundary Condition
  ,                                       !- Outside Boundary Condition Object
  NoSun,                                  !- Sun Exposure
  NoWind,                                 !- Wind Exposure
  ,                                       !- View Factor to Ground
  ,                                       !- Number of Vertices
  3, 47, 0,                               !- X,Y,Z Vertex 1 {m}
  3, -3, 0,                               !- X,Y,Z Vertex 2 {m}
  0, 0, 0,                                !- X,Y,Z Vertex 3 {m}
  0, 44, 0;                               !- X,Y,Z Vertex 4 {m}

OS:Surface,
  {51488281-c575-4595-b197-fce9f5bf7e6b}, !- Handle
  Story 1 East Perimeter Space Exterior Wall, !- Name
  Wall,                                   !- Surface Type
  ,                                       !- Construction Name
  {bc645d13-c70b-4e0e-9f72-cd0a2f2ab6b1}, !- Space Name
  Outdoors,                               !- Outside Boundary Condition
  ,                                       !- Outside Boundary Condition Object
  SunExposed,                             !- Sun Exposure
  WindExposed,                            !- Wind Exposure
  ,                                       !- View Factor to Ground
  ,                                       !- Number of Vertices
  3, -3, 4,                               !- X,Y,Z Vertex 1 {m}
  3, -3, 0,                               !- X,Y,Z Vertex 2 {m}
  3, 47, 0,                               !- X,Y,Z Vertex 3 {m}
  3, 47, 4;                               !- X,Y,Z Vertex 4 {m}

OS:Surface,
  {142710c6-ec4e-4767-ab63-f4dd7e3ee792}, !- Handle
  Story 1 East Perimeter Space to Story 1 South Perimeter Space Interior Wall, !- Name
  Wall,                                   !- Surface Type
  ,                                       !- Construction Name
  {bc645d13-c70b-4e0e-9f72-cd0a2f2ab6b1}, !- Space Name
  Surface,                                !- Outside Boundary Condition
  {07c1915a-93c7-4428-b68e-665402bf37ec}, !- Outside Boundary Condition Object
  NoSun,                                  !- Sun Exposure
  NoWind,                                 !- Wind Exposure
  ,                                       !- View Factor to Ground
  ,                                       !- Number of Vertices
  0, 0, 4,                                !- X,Y,Z Vertex 1 {m}
  0, 0, 0,                                !- X,Y,Z Vertex 2 {m}
  3, -3, 0,                               !- X,Y,Z Vertex 3 {m}
  3, -3, 4;                               !- X,Y,Z Vertex 4 {m}

OS:Surface,
  {2fc1f40c-8a17-41df-b24c-ddfba02899e6}, !- Handle
  Story 1 East Perimeter Space to Story 1 Core Space Interior Wall, !- Name
  Wall,                                   !- Surface Type
  ,                                       !- Construction Name
  {bc645d13-c70b-4e0e-9f72-cd0a2f2ab6b1}, !- Space Name
  Surface,                                !- Outside Boundary Condition
  {d3f015b5-9b8d-415f-a35f-419a2b8fd5a3}, !- Outside Boundary Condition Object
  NoSun,                                  !- Sun Exposure
  NoWind,                                 !- Wind Exposure
  ,                                       !- View Factor to Ground
  ,                                       !- Number of Vertices
  0, 44, 4,                               !- X,Y,Z Vertex 1 {m}
  0, 44, 0,                               !- X,Y,Z Vertex 2 {m}
  0, 0, 0,                                !- X,Y,Z Vertex 3 {m}
  0, 0, 4;                                !- X,Y,Z Vertex 4 {m}

OS:Surface,
  {5f81c771-a54b-4e04-857c-c07104057495}, !- Handle
  Story 1 East Perimeter Space to Story 1 North Perimeter Space Interior Wall, !- Name
  Wall,                                   !- Surface Type
  ,                                       !- Construction Name
  {bc645d13-c70b-4e0e-9f72-cd0a2f2ab6b1}, !- Space Name
  Surface,                                !- Outside Boundary Condition
  {13a317c7-fdcb-4d36-92da-b6f2b9cc4325}, !- Outside Boundary Condition Object
  NoSun,                                  !- Sun Exposure
  NoWind,                                 !- Wind Exposure
  ,                                       !- View Factor to Ground
  ,                                       !- Number of Vertices
  3, 47, 4,                               !- X,Y,Z Vertex 1 {m}
  3, 47, 0,                               !- X,Y,Z Vertex 2 {m}
  0, 44, 0,                               !- X,Y,Z Vertex 3 {m}
  0, 44, 4;                               !- X,Y,Z Vertex 4 {m}

OS:Surface,
  {2fd0365f-6863-4dd9-900d-e5ecffa2b57c}, !- Handle
  Story 1 East Perimeter Space Exterior Roof, !- Name
  RoofCeiling,                            !- Surface Type
  ,                                       !- Construction Name
  {bc645d13-c70b-4e0e-9f72-cd0a2f2ab6b1}, !- Space Name
  Outdoors,                               !- Outside Boundary Condition
  ,                                       !- Outside Boundary Condition Object
  SunExposed,                             !- Sun Exposure
  WindExposed,                            !- Wind Exposure
  ,                                       !- View Factor to Ground
  ,                                       !- Number of Vertices
  0, 44, 4,                               !- X,Y,Z Vertex 1 {m}
  0, 0, 4,                                !- X,Y,Z Vertex 2 {m}
  3, -3, 4,                               !- X,Y,Z Vertex 3 {m}
  3, 47, 4;                               !- X,Y,Z Vertex 4 {m}

OS:Space,
  {198369fd-431f-490e-8a21-af7892c40022}, !- Handle
  Story 1 South Perimeter Space,          !- Name
  ,                                       !- Space Type Name
  ,                                       !- Default Construction Set Name
  ,                                       !- Default Schedule Set Name
  -0,                                     !- Direction of Relative North {deg}
  0,                                      !- X Origin {m}
  0,                                      !- Y Origin {m}
  0,                                      !- Z Origin {m}
  {767fc9a5-0349-4f26-b9ea-b1f1b3bdbf02}, !- Building Story Name
  {fbafd074-e243-48f6-8877-3c0bd3ac529d}; !- Thermal Zone Name

OS:Surface,
  {0434b30d-02e1-4478-860e-369c01e6c1e2}, !- Handle
  Story 1 South Perimeter Space Exterior Ground Floor, !- Name
  Floor,                                  !- Surface Type
  ,                                       !- Construction Name
  {198369fd-431f-490e-8a21-af7892c40022}, !- Space Name
  Ground,                                 !- Outside Boundary Condition
  ,                                       !- Outside Boundary Condition Object
  NoSun,                                  !- Sun Exposure
  NoWind,                                 !- Wind Exposure
  ,                                       !- View Factor to Ground
  ,                                       !- Number of Vertices
  100, 0, 0,                              !- X,Y,Z Vertex 1 {m}
  0, 0, 0,                                !- X,Y,Z Vertex 2 {m}
  3, 3, 0,                                !- X,Y,Z Vertex 3 {m}
  97, 3, 0;                               !- X,Y,Z Vertex 4 {m}

OS:Surface,
  {615beffa-20b0-4406-8a36-5f0288a3bb80}, !- Handle
  Story 1 South Perimeter Space Exterior Wall, !- Name
  Wall,                                   !- Surface Type
  ,                                       !- Construction Name
  {198369fd-431f-490e-8a21-af7892c40022}, !- Space Name
  Outdoors,                               !- Outside Boundary Condition
  ,                                       !- Outside Boundary Condition Object
  SunExposed,                             !- Sun Exposure
  WindExposed,                            !- Wind Exposure
  ,                                       !- View Factor to Ground
  ,                                       !- Number of Vertices
  0, 0, 4,                                !- X,Y,Z Vertex 1 {m}
  0, 0, 0,                                !- X,Y,Z Vertex 2 {m}
  100, 0, 0,                              !- X,Y,Z Vertex 3 {m}
  100, 0, 4;                              !- X,Y,Z Vertex 4 {m}

OS:Surface,
  {02c00405-eb37-4072-a062-460898574b0d}, !- Handle
  Story 1 South Perimeter Space to Story 1 West Perimeter Space Interior Wall, !- Name
  Wall,                                   !- Surface Type
  ,                                       !- Construction Name
  {198369fd-431f-490e-8a21-af7892c40022}, !- Space Name
  Surface,                                !- Outside Boundary Condition
  {1e760ab6-9675-48ed-97f6-f6f304933f7d}, !- Outside Boundary Condition Object
  NoSun,                                  !- Sun Exposure
  NoWind,                                 !- Wind Exposure
  ,                                       !- View Factor to Ground
  ,                                       !- Number of Vertices
  3, 3, 4,                                !- X,Y,Z Vertex 1 {m}
  3, 3, 0,                                !- X,Y,Z Vertex 2 {m}
  0, 0, 0,                                !- X,Y,Z Vertex 3 {m}
  0, 0, 4;                                !- X,Y,Z Vertex 4 {m}

OS:Surface,
  {78e1d301-0df0-4d9e-be2b-d3150ffefd32}, !- Handle
  Story 1 South Perimeter Space to Story 1 Core Space Interior Wall, !- Name
  Wall,                                   !- Surface Type
  ,                                       !- Construction Name
  {198369fd-431f-490e-8a21-af7892c40022}, !- Space Name
  Surface,                                !- Outside Boundary Condition
  {6ed2efe3-d145-460c-806d-8158b513cd1d}, !- Outside Boundary Condition Object
  NoSun,                                  !- Sun Exposure
  NoWind,                                 !- Wind Exposure
  ,                                       !- View Factor to Ground
  ,                                       !- Number of Vertices
  97, 3, 4,                               !- X,Y,Z Vertex 1 {m}
  97, 3, 0,                               !- X,Y,Z Vertex 2 {m}
  3, 3, 0,                                !- X,Y,Z Vertex 3 {m}
  3, 3, 4;                                !- X,Y,Z Vertex 4 {m}

OS:Surface,
  {07c1915a-93c7-4428-b68e-665402bf37ec}, !- Handle
  Story 1 South Perimeter Space to Story 1 East Perimeter Space Interior Wall, !- Name
  Wall,                                   !- Surface Type
  ,                                       !- Construction Name
  {198369fd-431f-490e-8a21-af7892c40022}, !- Space Name
  Surface,                                !- Outside Boundary Condition
  {142710c6-ec4e-4767-ab63-f4dd7e3ee792}, !- Outside Boundary Condition Object
  NoSun,                                  !- Sun Exposure
  NoWind,                                 !- Wind Exposure
  ,                                       !- View Factor to Ground
  ,                                       !- Number of Vertices
  100, 0, 4,                              !- X,Y,Z Vertex 1 {m}
  100, 0, 0,                              !- X,Y,Z Vertex 2 {m}
  97, 3, 0,                               !- X,Y,Z Vertex 3 {m}
  97, 3, 4;                               !- X,Y,Z Vertex 4 {m}

OS:Surface,
  {0c2df271-fad1-469d-989a-a428cfcbe974}, !- Handle
  Story 1 South Perimeter Space Exterior Roof, !- Name
  RoofCeiling,                            !- Surface Type
  ,                                       !- Construction Name
  {198369fd-431f-490e-8a21-af7892c40022}, !- Space Name
  Outdoors,                               !- Outside Boundary Condition
  ,                                       !- Outside Boundary Condition Object
  SunExposed,                             !- Sun Exposure
  WindExposed,                            !- Wind Exposure
  ,                                       !- View Factor to Ground
  ,                                       !- Number of Vertices
  97, 3, 4,                               !- X,Y,Z Vertex 1 {m}
  3, 3, 4,                                !- X,Y,Z Vertex 2 {m}
  0, 0, 4,                                !- X,Y,Z Vertex 3 {m}
  100, 0, 4;                              !- X,Y,Z Vertex 4 {m}

OS:Space,
  {c6640548-86b8-4c5a-b01d-e13b077dc143}, !- Handle
  Story 1 Core Space,                     !- Name
  ,                                       !- Space Type Name
  ,                                       !- Default Construction Set Name
  ,                                       !- Default Schedule Set Name
  -0,                                     !- Direction of Relative North {deg}
  3,                                      !- X Origin {m}
  3,                                      !- Y Origin {m}
  0,                                      !- Z Origin {m}
  {767fc9a5-0349-4f26-b9ea-b1f1b3bdbf02}, !- Building Story Name
  {8266b7de-9a9e-40ea-8dd3-08cfe3622e6d}; !- Thermal Zone Name

OS:Surface,
  {e5e0bc9c-c501-4163-8067-db2eb1c046f9}, !- Handle
  Story 1 Core Space Exterior Ground Floor, !- Name
  Floor,                                  !- Surface Type
  ,                                       !- Construction Name
  {c6640548-86b8-4c5a-b01d-e13b077dc143}, !- Space Name
  Ground,                                 !- Outside Boundary Condition
  ,                                       !- Outside Boundary Condition Object
  NoSun,                                  !- Sun Exposure
  NoWind,                                 !- Wind Exposure
  ,                                       !- View Factor to Ground
  ,                                       !- Number of Vertices
  0, 0, 0,                                !- X,Y,Z Vertex 1 {m}
  0, 44, 0,                               !- X,Y,Z Vertex 2 {m}
  94, 44, 0,                              !- X,Y,Z Vertex 3 {m}
  94, 0, 0;                               !- X,Y,Z Vertex 4 {m}

OS:Surface,
  {01b5e7fe-aa3b-403f-8bf0-fd6ec65751ac}, !- Handle
  Story 1 Core Space to Story 1 West Perimeter Space Interior Wall, !- Name
  Wall,                                   !- Surface Type
  ,                                       !- Construction Name
  {c6640548-86b8-4c5a-b01d-e13b077dc143}, !- Space Name
  Surface,                                !- Outside Boundary Condition
  {61825cee-18f5-40c6-921f-af21db8fc7bc}, !- Outside Boundary Condition Object
  NoSun,                                  !- Sun Exposure
  NoWind,                                 !- Wind Exposure
  ,                                       !- View Factor to Ground
  ,                                       !- Number of Vertices
  0, 44, 4,                               !- X,Y,Z Vertex 1 {m}
  0, 44, 0,                               !- X,Y,Z Vertex 2 {m}
  0, 0, 0,                                !- X,Y,Z Vertex 3 {m}
  0, 0, 4;                                !- X,Y,Z Vertex 4 {m}

OS:Surface,
  {c831ea7c-7694-4e0e-851f-e4212c51d360}, !- Handle
  Story 1 Core Space to Story 1 North Perimeter Space Interior Wall, !- Name
  Wall,                                   !- Surface Type
  ,                                       !- Construction Name
  {c6640548-86b8-4c5a-b01d-e13b077dc143}, !- Space Name
  Surface,                                !- Outside Boundary Condition
  {3f29208c-47df-491f-9e3a-7db3433fdb13}, !- Outside Boundary Condition Object
  NoSun,                                  !- Sun Exposure
  NoWind,                                 !- Wind Exposure
  ,                                       !- View Factor to Ground
  ,                                       !- Number of Vertices