
OS:Version,
  {02fc9f65-92e3-40fd-acd2-4dba52baf182}, !- Handle
  3.4.0;                                  !- Version Identifier

OS:BuildingStory,
  {626bf385-9b60-4155-a6f7-3839b82a08ad}, !- Handle
  Story 1,                                !- Name
  0,                                      !- Nominal Z Coordinate {m}
  4,                                      !- Nominal Floor to Floor Height {m}
  ,                                       !- Default Construction Set Name
  ,                                       !- Default Schedule Set Name
  ;                                       !- Group Rendering Name

OS:Space,
  {a375240e-5f59-4924-95f8-7c54925ea379}, !- Handle
  Story 1 Core Space,                     !- Name
  ,                                       !- Space Type Name
  ,                                       !- Default Construction Set Name
  ,                                       !- Default Schedule Set Name
  -0,                                     !- Direction of Relative North {deg}
  0,                                      !- X Origin {m}
  0,                                      !- Y Origin {m}
  0,                                      !- Z Origin {m}
  {626bf385-9b60-4155-a6f7-3839b82a08ad}, !- Building Story Name
  {65fcedbc-83c2-4ded-8764-25a482e98a2b}; !- Thermal Zone Name

OS:Surface,
  {3c0b3d9d-80bb-4ed6-a2a5-d6f51c97c101}, !- Handle
  Story 1 Core Space Exterior Ground Floor, !- Name
  Floor,                                  !- Surface Type
  ,                                       !- Construction Name
  {a375240e-5f59-4924-95f8-7c54925ea379}, !- Space Name
  Ground,                                 !- Outside Boundary Condition
  ,                                       !- Outside Boundary Condition Object
  NoSun,                                  !- Sun Exposure
  NoWind,                                 !- Wind Exposure
  ,                                       !- View Factor to Ground
  ,                                       !- Number of Vertices
  0, 0, 0,                                !- X,Y,Z Vertex 1 {m}
  0, 50, 0,                               !- X,Y,Z Vertex 2 {m}
  100, 50, 0,                             !- X,Y,Z Vertex 3 {m}
  100, 0, 0;                              !- X,Y,Z Vertex 4 {m}

OS:Surface,
  {7f0af024-e69a-4acc-8760-ce079761d2ed}, !- Handle
  Story 1 Core Space Exterior Wall 3,     !- Name
  Wall,                                   !- Surface Type
  ,                                       !- Construction Name
  {a375240e-5f59-4924-95f8-7c54925ea379}, !- Space Name
  Outdoors,                               !- Outside Boundary Condition
  ,                                       !- Outside Boundary Condition Object
  SunExposed,                             !- Sun Exposure
  WindExposed,                            !- Wind Exposure
  ,                                       !- View Factor to Ground
  ,                                       !- Number of Vertices
  0, 50, 4,                               !- X,Y,Z Vertex 1 {m}
  0, 50, 0,                               !- X,Y,Z Vertex 2 {m}
  0, 0, 0,                                !- X,Y,Z Vertex 3 {m}
  0, 0, 4;                                !- X,Y,Z Vertex 4 {m}

OS:Surface,
  {bff7b5ff-9803-4a27-aaf9-ebec107e1d99}, !- Handle
  Story 1 Core Space Exterior Wall 2,     !- Name
  Wall,                                   !- Surface Type
  ,                                       !- Construction Name
  {a375240e-5f59-4924-95f8-7c54925ea379}, !- Space Name
  Outdoors,                               !- Outside Boundary Condition
  ,                                       !- Outside Boundary Condition Object
  SunExposed,                             !- Sun Exposure
  WindExposed,                            !- Wind Exposure
  ,                                       !- View Factor to Ground
  ,                                       !- Number of Vertices
  100, 50, 4,                             !- X,Y,Z Vertex 1 {m}
  100, 50, 0,                             !- X,Y,Z Vertex 2 {m}
  0, 50, 0,                               !- X,Y,Z Vertex 3 {m}
  0, 50, 4;                               !- X,Y,Z Vertex 4 {m}

OS:Surface,
  {204a46ed-5e3f-4f44-a8b1-60148a0bb7aa}, !- Handle
  Story 1 Core Space Exterior Wall 1,     !- Name
  Wall,                                   !- Surface Type
  ,                                       !- Construction Name
  {a375240e-5f59-4924-95f8-7c54925ea379}, !- Space Name
  Outdoors,                               !- Outside Boundary Condition
  ,                                       !- Outside Boundary Condition Object
  SunExposed,                             !- Sun Exposure
  WindExposed,                            !- Wind Exposure
  ,                                       !- View Factor to Ground
  ,                                       !- Number of Vertices
  100, 0, 4,                              !- X,Y,Z Vertex 1 {m}
  100, 0, 0,                              !- X,Y,Z Vertex 2 {m}
  100, 50, 0,                             !- X,Y,Z Vertex 3 {m}
  100, 50, 4;                             !- X,Y,Z Vertex 4 {m}

OS:Surface,
  {2bedcf15-3654-457c-9245-cd98488b569a}, !- Handle
  Story 1 Core Space Exterior Wall,       !- Name
  Wall,                                   !- Surface Type
  ,                                       !- Construction Name
  {a375240e-5f59-4924-95f8-7c54925ea379}, !- Space Name
  Outdoors,                               !- Outside Boundary Condition
  ,                                       !- Outside Boundary Condition Object
  SunExposed,                             !- Sun Exposure
  WindExposed,                            !- Wind Exposure
  ,                                       !- View Factor to Ground
  ,                                       !- Number of Vertices
  0, 0, 4,                                !- X,Y,Z Vertex 1 {m}
  0, 0, 0,                                !- X,Y,Z Vertex 2 {m}
  100, 0, 0,                              !- X,Y,Z Vertex 3 {m}
  100, 0, 4;                              !- X,Y,Z Vertex 4 {m}

OS:Surface,
  {c9c18cae-13d8-43a1-b277-d9eb5a7f39c8}, !- Handle
  Story 1 Core Space Exterior Roof,       !- Name
  RoofCeiling,                            !- Surface Type
  ,                                       !- Construction Name
  {a375240e-5f59-4924-95f8-7c54925ea379}, !- Space Name
  Outdoors,                               !- Outside Boundary Condition
  ,                                       !- Outside Boundary Condition Object
  SunExposed,                             !- Sun Exposure
  WindExposed,                            !- Wind Exposure
  ,                                       !- View Factor to Ground
  ,                                       !- Number of Vertices
  100, 0, 4,                              !- X,Y,Z Vertex 1 {m}
  100, 50, 4,                             !- X,Y,Z Vertex 2 {m}
  0, 50, 4,                               !- X,Y,Z Vertex 3 {m}
  0, 0, 4;                                !- X,Y,Z Vertex 4 {m}

OS:ThermalZone,
  {65fcedbc-83c2-4ded-8764-25a482e98a2b}, !- Handle
  Story 1 Core Thermal Zone,              !- Name
  ,                                       !- Multiplier
  ,                                       !- Ceiling Height {m}
  ,                                       !- Volume {m3}
  ,                                       !- Floor Area {m2}
  ,                                       !- Zone Inside Convection Algorithm
  ,                                       !- Zone Outside Convection Algorithm
  ,                                       !- Zone Conditioning Equipment List Name
  {9c5aa605-ac54-4842-bdc6-af92e9ddee3e}, !- Zone Air Inlet Port List
  {e6fd10f7-2f0f-46cc-b860-7f1abbcc0cf7}, !- Zone Air Exhaust Port List
  {78ca26bc-1433-435b-8165-13554c143e37}, !- Zone Air Node Name
  {44dbf77d-0cda-498c-b546-a2ed4e5ae949}, !- Zone Return Air Port List
  ,                                       !- Primary Daylighting Control Name
  ,                                       !- Fraction of Zone Controlled by Primary Daylighting Control
  ,                                       !- Secondary Daylighting Control Name
  ,                                       !- Fraction of Zone Controlled by Secondary Daylighting Control
  ,                                       !- Illuminance Map Name
  ,                                       !- Group Rendering Name
  {cb55edd1-0124-4301-980d-bd3c77c80d94}, !- Thermostat Name
  Yes;                                    !- Use Ideal Air Loads

OS:Node,
  {860ba4e0-9c64-4f17-afc9-629ad7d6db2c}, !- Handle
  Node 1,                                 !- Name
  {78ca26bc-1433-435b-8165-13554c143e37}, !- Inlet Port
  ;                                       !- Outlet Port

OS:Connection,
  {78ca26bc-1433-435b-8165-13554c143e37}, !- Handle
  {65fcedbc-83c2-4ded-8764-25a482e98a2b}, !- Source Object
  11,                                     !- Outlet Port
  {860ba4e0-9c64-4f17-afc9-629ad7d6db2c}, !- Target Object
  2;                                      !- Inlet Port

OS:PortList,
  {9c5aa605-ac54-4842-bdc6-af92e9ddee3e}, !- Handle
  {65fcedbc-83c2-4ded-8764-25a482e98a2b}; !- HVAC Component

OS:PortList,
  {e6fd10f7-2f0f-46cc-b860-7f1abbcc0cf7}, !- Handle
  {65fcedbc-83c2-4ded-8764-25a482e98a2b}; !- HVAC Component

OS:PortList,
  {44dbf77d-0cda-498c-b546-a2ed4e5ae949}, !- Handle
  {65fcedbc-83c2-4ded-8764-25a482e98a2b}; !- HVAC Component

OS:Sizing:Zone,
  {e00be108-8981-4c1e-b648-25dd34a222aa}, !- Handle
  {65fcedbc-83c2-4ded-8764-25a482e98a2b}, !- Zone or ZoneList Name
  SupplyAirTemperature,                   !- Zone Cooling Design Supply Air Temperature Input Method
  14,                                     !- Zone Cooling Design Supply Air Temperature {C}
  11.11,                                  !- Zone Cooling Design Supply Air Temperature Difference {deltaC}
  SupplyAirTemperature,                   !- Zone Heating Design Supply Air Temperature Input Method
  40,                                     !- Zone Heating Design Supply Air Temperature {C}
  11.11,                                  !- Zone Heating Design Supply Air Temperature Difference {deltaC}
  0.0085,                                 !- Zone Cooling Design Supply Air Humidity Ratio {kg-H2O/kg-air}
  0.008,                                  !- Zone Heating Design Supply Air Humidity Ratio {kg-H2O/kg-air}
  ,                                       !- Zone Heating Sizing Factor
  ,                                       !- Zone Cooling Sizing Factor
  DesignDay,                              !- Cooling Design Air Flow Method
  ,                                       !- Cooling Design Air Flow Rate {m3/s}
  ,                                       !- Cooling Minimum Air Flow per Zone Floor Area {m3/s-m2}
  ,                                       !- Cooling Minimum Air Flow {m3/s}
  ,                                       !- Cooling Minimum Air Flow Fraction
  DesignDay,                              !- Heating Design Air Flow Method
  ,                                       !- Heating Design Air Flow Rate {m3/s}
  ,                                       !- Heating Maximum Air Flow per Zone Floor Area {m3/s-m2}
  ,                                       !- Heating Maximum Air Flow {m3/s}
  ,                                       !- Heating Maximum Air Flow Fraction
  No,                                     !- Account for Dedicated Outdoor Air System
  NeutralSupplyAir,                       !- Dedicated Outdoor Air System Control Strategy
  autosize,                               !- Dedicated Outdoor Air Low Setpoint Temperature for Design {C}
  autosize;                               !- Dedicated Outdoor Air High Setpoint Temperature for Design {C}

OS:ZoneHVAC:EquipmentList,
  {03d340a5-ea25-4e53-a1e0-253f65fc1142}, !- Handle
  Zone HVAC Equipment List 1,             !- Name
  {65fcedbc-83c2-4ded-8764-25a482e98a2b}; !- Thermal Zone

OS:SubSurface,
  {a47aff8c-2bb0-4bc6-9ef1-5b881e7187f6}, !- Handle
  Story 1 Core Space Exterior Wall Window, !- Name
  FixedWindow,                            !- Sub Surface Type
  ,                                       !- Construction Name
  {2bedcf15-3654-457c-9245-cd98488b569a}, !- Surface Name
  ,                                       !- Outside Boundary Condition Object
  ,                                       !- View Factor to Ground
  {480b21bd-03d4-4156-a0e6-11b52e21ae34}, !- Frame and Divider Name
  ,                                       !- Multiplier
  ,                                       !- Number of Vertices
  0.0254, 0, 2.60081321311226,            !- X,Y,Z Vertex 1 {m}
  0.0254, 0, 1,                           !- X,Y,Z Vertex 2 {m}
  99.9746, 0, 1,                          !- X,Y,Z Vertex 3 {m}
  99.9746, 0, 2.60081321311226;           !- X,Y,Z Vertex 4 {m}

OS:SubSurface,
  {9c99146c-28b6-447a-b474-01976588c463}, !- Handle
  Story 1 Core Space Exterior Wall 1 Window, !- Name
  FixedWindow,                            !- Sub Surface Type
  ,                                       !- Construction Name
  {204a46ed-5e3f-4f44-a8b1-60148a0bb7aa}, !- Surface Name
  ,                                       !- Outside Boundary Condition Object
  ,                                       !- View Factor to Ground
  {480b21bd-03d4-4156-a0e6-11b52e21ae34}, !- Frame and Divider Name
  ,                                       !- Multiplier
  ,                                       !- Number of Vertices
  100, 0.0254, 2.60162725328934,          !- X,Y,Z Vertex 1 {m}
  100, 0.0254, 1,                         !- X,Y,Z Vertex 2 {m}
  100, 49.9746, 1,                        !- X,Y,Z Vertex 3 {m}
  100, 49.9746, 2.60162725328934;         !- X,Y,Z Vertex 4 {m}

OS:SubSurface,
  {b5ed1675-9cdd-44b2-af11-637bd0761b8f}, !- Handle
  Story 1 Core Space Exterior Wall 2 Window, !- Name
  FixedWindow,                            !- Sub Surface Type
  ,                                       !- Construction Name
  {bff7b5ff-9803-4a27-aaf9-ebec107e1d99}, !- Surface Name
  ,                                       !- Outside Boundary Condition Object
  ,                                       !- View Factor to Ground
  {480b21bd-03d4-4156-a0e6-11b52e21ae34}, !- Frame and Divider Name
  ,                                       !- Multiplier
  ,                                       !- Number of Vertices
  99.9746, 50, 2.60081321311226,          !- X,Y,Z Vertex 1 {m}
  99.9746, 50, 1,                         !- X,Y,Z Vertex 2 {m}
  0.0253999999999905, 50, 1,              !- X,Y,Z Vertex 3 {m}
  0.0253999999999905, 50, 2.60081321311226; !- X,Y,Z Vertex 4 {m}

OS:SubSurface,
  {03b474ab-fdca-4c71-ab35-c09adf09a3a1}, !- Handle
  Story 1 Core Space Exterior Wall 3 Window, !- Name
  FixedWindow,                            !- Sub Surface Type
  ,                                       !- Construction Name
  {7f0af024-e69a-4acc-8760-ce079761d2ed}, !- Surface Name
  ,                                       !- Outside Boundary Condition Object
  ,                                       !- View Factor to Ground
  {480b21bd-03d4-4156-a0e6-11b52e21ae34}, !- Frame and Divider Name
  ,                                       !- Multiplier
  ,                                       !- Number of Vertices
  0, 49.9746, 2.60162725328934,           !- X,Y,Z Vertex 1 {m}
  0, 49.9746, 1,                          !- X,Y,Z Vertex 2 {m}
  0, 0.0254000000000048, 1,               !- X,Y,Z Vertex 3 {m}
  0, 0.0254000000000048, 2.60162725328934; !- X,Y,Z Vertex 4 {m}

OS:Schedule:Ruleset,
  {ee6224c1-9ce1-4cf7-bde7-8c87e10e2ffe}, !- Handle
  Cooling Sch,                            !- Name
  {4755cd27-4e8e-418c-80ff-522ee9f5a282}, !- Schedule Type Limits Name
  {6b4b9f7c-20ef-4f34-ac91-67510f5e6649}; !- Default Day Schedule Name

OS:Schedule:Day,
  {6b4b9f7c-20ef-4f34-ac91-67510f5e6649}, !- Handle
  Cooling Sch Default,                    !- Name
  {4755cd27-4e8e-418c-80ff-522ee9f5a282}, !- Schedule Type Limits Name
  ,                                       !- Interpolate to Timestep
  24,                                     !- Hour 1
  0,                                      !- Minute 1
  26;                                     !- Value Until Time 1

OS:Schedule:Ruleset,
  {53fb4d0d-3600-49ee-b548-77a7e2a9e9ac}, !- Handle
  Heating Sch,                            !- Name
  {4755cd27-4e8e-418c-80ff-522ee9f5a282}, !- Schedule Type Limits Name
  {0fd24b5f-0615-4221-b9f1-11892f40ee37}; !- Default Day Schedule Name

OS:Schedule:Day,
  {0fd24b5f-0615-4221-b9f1-11892f40ee37}, !- Handle
  Heating Sch Default,                    !- Name
  {4755cd27-4e8e-418c-80ff-522ee9f5a282}, !- Schedule Type Limits Name
  ,                                       !- Interpolate to Timestep
  24,                                     !- Hour 1
  0,                                      !- Minute 1
  19;                                     !- Value Until Time 1

OS:ThermostatSetpoint:DualSetpoint,
  {cb55edd1-0124-4301-980d-bd3c77c80d94}, !- Handle
  Thermostat Setpoint Dual Setpoint 1,    !- Name
  {53fb4d0d-3600-49ee-b548-77a7e2a9e9ac}, !- Heating Setpoint Temperature Schedule Name
  {ee6224c1-9ce1-4cf7-bde7-8c87e10e2ffe}; !- Cooling Setpoint Temperature Schedule Name

OS:ScheduleTypeLimits,
  {4755cd27-4e8e-418c-80ff-522ee9f5a282}, !- Handle
  Temperature,                            !- Name
  ,                                       !- Lower Limit Value
  ,                                       !- Upper Limit Value
  Continuous,                             !- Numeric Type
  Temperature;                            !- Unit Type

OS:DefaultConstructionSet,
  {c78ed232-f749-4474-91a6-519b9dc696ae}, !- Handle
  ASHRAE_189.1-2009_ClimateZone 4-5 (mdoff)_ConstSet, !- Name
  {93c1baa1-8a28-4e2b-8792-3c712bee41ee}, !- Default Exterior Surface Constructions Name
  {dd98f9a7-6e25-4c47-8a3c-cbb18e0f6d99}, !- Default Interior Surface Constructions Name
  {e29f1f72-5f68-432c-b273-ab780222e5cd}, !- Default Ground Contact Surface Constructions Name
  {6b83fce2-313c-4678-a182-f8df27f09e3e}, !- Default Exterior SubSurface Constructions Name
  {3f017e45-7bf6-4986-bc8b-def4c8d00607}, !- Default Interior SubSurface Constructions Name
  {c372485c-0798-4e42-bbd8-6c6ec9350280}, !- Interior Partition Construction Name
  ,                                       !- Space Shading Construction Name
  ,                                       !- Building Shading Construction Name
  ,                                       !- Site Shading Construction Name
  ;                                       !- Adiabatic Surface Construction Name

OS:DefaultSurfaceConstructions,
  {93c1baa1-8a28-4e2b-8792-3c712bee41ee}, !- Handle
  ASHRAE_189.1-2009_ClimateZone 4-5 (mdoff)_Exterior_DefSurfCons, !- Name
  {3c515ecd-06b2-4ebd-9653-69ea7e3610a8}, !- Floor Construction Name
  {225f2c5f-02f6-4ad9-8379-10d12e97f32e}, !- Wall Construction Name
  {04128905-62e7-4552-9f73-ef0c20106041}; !- Roof Ceiling Construction Name

OS:DefaultSurfaceConstructions,
  {dd98f9a7-6e25-4c47-8a3c-cbb18e0f6d99}, !- Handle
  000_Interior_DefSurfCons,               !- Name
  {c738cd9b-68e7-484d-9789-d8ed273aefb6}, !- Floor Construction Name
  {2d4cd611-d9a5-4e89-a125-7cde368cbb35}, !- Wall Construction Name
  {daf24b2a-cee3-486a-ad59-767134910307}; !- Roof Ceiling Construction Name

OS:DefaultSurfaceConstructions,
  {e29f1f72-5f68-432c-b273-ab780222e5cd}, !- Handle
  000_Ground_DefSurfCons,                 !- Name
  {3c515ecd-06b2-4ebd-9653-69ea7e3610a8}, !- Floor Construction Name
  {3c515ecd-06b2-4ebd-9653-69ea7e3610a8}, !- Wall Construction Name
  {3c515ecd-06b2-4ebd-9653-69ea7e3610a8}; !- Roof Ceiling Construction Name

OS:DefaultSubSurfaceConstructions,
  {6b83fce2-313c-4678-a182-f8df27f09e3e}, !- Handle
  ASHRAE_189.1-2009_ClimateZone 4-5 (mdoff)_Exterior_DefSubCons, !- Name
  {b3dc1a94-ea93-4707-984c-9284c3774745}, !- Fixed Window Construction Name
  {b3dc1a94-ea93-4707-984c-9284c3774745}, !- Operable Window Construction Name
  {9ed65649-c788-4c20-bbed-ce0ea63a2157}, !- Door Construction Name
  {0ae0d065-dbf3-4c86-b12b-42011dfd3d26}, !- Glass Door Construction Name
  ,                                       !- Overhead Door Construction Name
  {0ae0d065-dbf3-4c86-b12b-42011dfd3d26}, !- Skylight Construction Name
  {ea05600c-fe91-4b7f-8664-859454b1561c}, !- Tubular Daylight Dome Construction Name
  {ea05600c-fe91-4b7f-8664-859454b1561c}; !- Tubular Daylight Diffuser Construction Name

OS:DefaultSubSurfaceConstructions,
  {3f017e45-7bf6-4986-bc8b-def4c8d00607}, !- Handle
  000_Interior_DefSubCons,                !- Name
  {ea05600c-fe91-4b7f-8664-859454b1561c}, !- Fixed Window Construction Name
  {ea05600c-fe91-4b7f-8664-859454b1561c}, !- Operable Window Construction Name
  {e2ec280b-7293-4d97-b04d-e34203705ecc}, !- Door Construction Name
  {0ae0d065-dbf3-4c86-b12b-42011dfd3d26}, !- Glass Door Construction Name
  ,                                       !- Overhead Door Construction Name
  {0ae0d065-dbf3-4c86-b12b-42011dfd3d26}, !- Skylight Construction Name
  {ea05600c-fe91-4b7f-8664-859454b1561c}, !- Tubular Daylight Dome Construction Name
  {ea05600c-fe91-4b7f-8664-859454b1561c}; !- Tubular Daylight Diffuser Construction Name

OS:Construction,
  {c372485c-0798-4e42-bbd8-6c6ec9350280}, !- Handle
  000_Interior Partition,                 !- Name
  ,                                       !- Surface Rendering Name
  {cf6a4bb0-760e-4344-93f8-378f2a36d324}; !- Layer 1

OS:Construction,
  {3c515ecd-06b2-4ebd-9653-69ea7e3610a8}, !- Handle
  000_ExtSlabCarpet_4in_ClimateZone 1-8,  !- Name
  ,                                       !- Surface Rendering Name
  {38db3828-9445-450b-8332-9d045bf33f34}, !- Layer 1
  {bc385c62-4671-4855-af5c-32869a33a5b2}; !- Layer 2

OS:Construction,
  {225f2c5f-02f6-4ad9-8379-10d12e97f32e}, !- Handle
  ASHRAE_189.1-2009_ExtWall_SteelFrame_ClimateZone 4-8, !- Name
  ,                                       !- Surface Rendering Name
  {c0ab1f65-587a-42d3-8907-aaa3e68ee33a}, !- Layer 1
  {de1cfee3-e30c-4674-9ddd-077a60b93084}, !- Layer 2
  {f5fe2319-9cb7-48e7-80fa-eb3c90846112}; !- Layer 3

OS:Construction,
  {04128905-62e7-4552-9f73-ef0c20106041}, !- Handle
  ASHRAE_189.1-2009_ExtRoof_IEAD_ClimateZone 2-5, !- Name
  ,                                       !- Surface Rendering Name
  {0178f0c6-62ad-4688-b7a6-c6ccea48629e}, !- Layer 1
  {61177508-03ab-45fd-8f6b-f82bd6ecde7d}, !- Layer 2
  {e4b185ff-47c9-4d5f-b794-1dbf7afab35e}; !- Layer 3

OS:Construction,
  {c738cd9b-68e7-484d-9789-d8ed273aefb6}, !- Handle
  000_Interior Floor,                     !- Name
  ,                                       !- Surface Rendering Name
  {8c86b077-28fe-485a-a1e2-7cdc4201a0f1}, !- Layer 1
  {506a2edb-36fb-45ba-8e08-936d5f3e71d3}, !- Layer 2
  {c2c0ff40-78c1-4c08-bb62-7fe75ce614d0}; !- Layer 3

OS:Construction,
  {2d4cd611-d9a5-4e89-a125-7cde368cbb35}, !- Handle
  000_Interior Wall,                      !- Name
  ,                                       !- Surface Rendering Name
  {a8c45dfb-246c-4eb2-9d91-967ed93f3a65}, !- Layer 1
  {9bce7db3-4ae7-4d4e-bc3b-566044904203}, !- Layer 2
  {a8c45dfb-246c-4eb2-9d91-967ed93f3a65}; !- Layer 3

OS:Construction,
  {daf24b2a-cee3-486a-ad59-767134910307}, !- Handle
  000_Interior Ceiling,                   !- Name
  ,                                       !- Surface Rendering Name
  {c2c0ff40-78c1-4c08-bb62-7fe75ce614d0}, !- Layer 1
  {506a2edb-36fb-45ba-8e08-936d5f3e71d3}, !- Layer 2
  {8c86b077-28fe-485a-a1e2-7cdc4201a0f1}; !- Layer 3

OS:Construction,
  {b3dc1a94-ea93-4707-984c-9284c3774745}, !- Handle
  ASHRAE_189.1-2009_ExtWindow_ClimateZone 4-5, !- Name
  ,                                       !- Surface Rendering Name
  {c5a67e25-0665-48e9-b55f-d27ef98e5aad}; !- Layer 1

OS:Construction,
  {9ed65649-c788-4c20-bbed-ce0ea63a2157}, !- Handle
  000_Exterior Door,                      !- Name
  ,                                       !- Surface Rendering Name
  {0461eb95-f947-4f77-ae33-699adc430cac}, !- Layer 1
  {ec705919-75e6-4ae1-acf7-f97a949acbb3}; !- Layer 2

OS:Construction,
  {0ae0d065-dbf3-4c86-b12b-42011dfd3d26}, !- Handle
  000_Exterior Window,                    !- Name
  ,                                       !- Surface Rendering Name
  {1a2389f6-c199-4c5f-9947-b4745c756e95}, !- Layer 1
  {8de9d9f3-c7d8-4283-a057-014cad5c3b67}, !- Layer 2
  {1a2389f6-c199-4c5f-9947-b4745c756e95}; !- Layer 3

OS:Construction,
  {ea05600c-fe91-4b7f-8664-859454b1561c}, !- Handle
  000_Interior Window,                    !- Name
  ,                                       !- Surface Rendering Name
  {1a2389f6-c199-4c5f-9947-b4745c756e95}; !- Layer 1

OS:Construction,
  {e2ec280b-7293-4d97-b04d-e34203705ecc}, !- Handle
  000_Interior Door,                      !- Name
  ,                                       !- Surface Rendering Name
  {cf6a4bb0-760e-4344-93f8-378f2a36d324}; !- Layer 1

OS:Material,
  {cf6a4bb0-760e-4344-93f8-378f2a36d324}, !- Handle
  000_G05 25mm wood,                      !- Name
  MediumSmooth,                           !- Roughness
  0.025399999999999999,                   !- Thickness {m}
  0.14999999999999999,                    !- Conductivity {W/m-K}
  608,                                    !- Density {kg/m3}
  1630;                                   !- Specific Heat {J/kg-K}

OS:Material,
  {38db3828-9445-450b-8332-9d045bf33f34}, !- Handle
  MAT-CC05 4 HW CONCRETE,                 !- Name
  Rough,                                  !- Roughness
  0.1016,                                 !- Thickness {m}
  1.3109999999999999,                     !- Conductivity {W/m-K}
  2240,                                   !- Density {kg/m3}
  836.8,                                  !- Specific Heat {J/kg-K}
  0.90000000000000002,                    !- Thermal Absorptance
  0.69999999999999996,                    !- Solar Absorptance
  0.69999999999999996;                    !- Visible Absorptance

OS:Material:NoMass,
  {bc385c62-4671-4855-af5c-32869a33a5b2}, !- Handle
  CP02 CARPET PAD,                        !- Name
  VeryRough,                              !- Roughness
  0.2165,                                 !- Thermal Resistance {m2-K/W}
  0.90000000000000002,                    !- Thermal Absorptance
  0.69999999999999996,                    !- Solar Absorptance
  0.80000000000000004;                    !- Visible Absorptance

OS:Material:NoMass,
  {c0ab1f65-587a-42d3-8907-aaa3e68ee33a}, !- Handle
  MAT-SHEATH,                             !- Name
  Rough,                                  !- Roughness
  0.36259999999999998,                    !- Thermal Resistance {m2-K/W}
  0.90000000000000002,                    !- Thermal Absorptance
  0.69999999999999996,                    !- Solar Absorptance
  0.69999999999999996;                    !- Visible Absorptance

OS:Material,
  {de1cfee3-e30c-4674-9ddd-077a60b93084}, !- Handle
  Wall Insulation [39],                   !- Name
  MediumRough,                            !- Roughness
  0.11840000000000001,                    !- Thickness {m}
  0.044999999999999998,                   !- Conductivity {W/m-K}
  265,                                    !- Density {kg/m3}
  836.8,                                  !- Specific Heat {J/kg-K}
  0.90000000000000002,                    !- Thermal Absorptance
  0.69999999999999996,                    !- Solar Absorptance
  0.69999999999999996;                    !- Visible Absorptance

OS:Material,
  {f5fe2319-9cb7-48e7-80fa-eb3c90846112}, !- Handle
  1/2IN Gypsum,                           !- Name
  Smooth,                                 !- Roughness
  0.012699999999999999,                   !- Thickness {m}
  0.16,                                   !- Conductivity {W/m-K}
  784.89999999999998,                     !- Density {kg/m3}
  830,                                    !- Specific Heat {J/kg-K}
  0.90000000000000002,                    !- Thermal Absorptance
  0.92000000000000004,                    !- Solar Absorptance
  0.92000000000000004;                    !- Visible Absorptance

OS:Material,
  {0178f0c6-62ad-4688-b7a6-c6ccea48629e}, !- Handle
  Roof Membrane,                          !- Name
  VeryRough,                              !- Roughness
  0.0094999999999999998,                  !- Thickness {m}
  0.16,                                   !- Conductivity {W/m-K}
  1121.29,                                !- Density {kg/m3}
  1460,                                   !- Specific Heat {J/kg-K}
  0.90000000000000002,                    !- Thermal Absorptance
  0.69999999999999996,                    !- Solar Absorptance
  0.69999999999999996;                    !- Visible Absorptance

OS:Material,
  {61177508-03ab-45fd-8f6b-f82bd6ecde7d}, !- Handle
  Roof Insulation [21],                   !- Name
  MediumRough,                            !- Roughness
  0.21049999999999999,                    !- Thickness {m}
  0.049000000000000002,                   !- Conductivity {W/m-K}
  265,                                    !- Density {kg/m3}
  836.8,                                  !- Specific Heat {J/kg-K}
  0.90000000000000002,                    !- Thermal Absorptance
  0.69999999999999996,                    !- Solar Absorptance
  0.69999999999999996;                    !- Visible Absorptance

OS:Material,
  {e4b185ff-47c9-4d5f-b794-1dbf7afab35e}, !- Handle
  Metal Decking,                          !- Name
  MediumSmooth,                           !- Roughness
  0.0015,                                 !- Thickness {m}
  45.006,                                 !- Conductivity {W/m-K}
  7680,                                   !- Density {kg/m3}
  418.4,                                  !- Specific Heat {J/kg-K}
  0.90000000000000002,                    !- Thermal Absorptance
  0.69999999999999996,                    !- Solar Absorptance
  0.29999999999999999;                    !- Visible Absorptance

OS:Material,
  {8c86b077-28fe-485a-a1e2-7cdc4201a0f1}, !- Handle
  000_F16 Acoustic tile,                  !- Name