
OS:Version,
  {470e1e51-78ba-448d-8bd9-8dd32638164d}, !- Handle
  3.0.0;                                  !- Version Identifier

OS:BuildingStory,
  {d37a85fe-b235-4a0b-9290-3b0475e08ce7}, !- Handle
  Story 1,                                !- Name
  0,                                      !- Nominal Z Coordinate {m}
  4,                                      !- Nominal Floor to Floor Height {m}
  ,                                       !- Default Construction Set Name
  ,                                       !- Default Schedule Set Name
  ;                                       !- Group Rendering Name

OS:Space,
  {be2136ba-952c-4117-962b-c30c6d4b2cec}, !- Handle
  Story 1 Core Space,                     !- Name
  ,                                       !- Space Type Name
  ,                                       !- Default Construction Set Name
  ,                                       !- Default Schedule Set Name
  -0,                                     !- Direction of Relative North {deg}
  0,                                      !- X Origin {m}
  0,                                      !- Y Origin {m}
  0,                                      !- Z Origin {m}
  {d37a85fe-b235-4a0b-9290-3b0475e08ce7}, !- Building Story Name
  {ebf9bc06-c47b-43c5-a620-85d81b4f2f5a}; !- Thermal Zone Name

OS:Surface,
  {7a564826-ac8a-4a21-8773-1dcd90b50ee2}, !- Handle
  Surface 1,                              !- Name
  Floor,                                  !- Surface Type
  ,                                       !- Construction Name
  {be2136ba-952c-4117-962b-c30c6d4b2cec}, !- Space Name
  Ground,                                 !- Outside Boundary Condition
  ,                                       !- Outside Boundary Condition Object
  NoSun,                                  !- Sun Exposure
  NoWind,                                 !- Wind Exposure
  ,                                       !- View Factor to Ground
  ,                                       !- Number of Vertices
  0, 0, 0,                                !- X,Y,Z Vertex 1 {m}
  0, 50, 0,                               !- X,Y,Z Vertex 2 {m}
  100, 50, 0,                             !- X,Y,Z Vertex 3 {m}
  100, 0, 0;                              !- X,Y,Z Vertex 4 {m}

OS:Surface,
  {bd91495c-01a9-49cd-9640-f16f3de6115c}, !- Handle
  Surface 2,                              !- Name
  Wall,                                   !- Surface Type
  ,                                       !- Construction Name
  {be2136ba-952c-4117-962b-c30c6d4b2cec}, !- Space Name
  Outdoors,                               !- Outside Boundary Condition
  ,                                       !- Outside Boundary Condition Object
  SunExposed,                             !- Sun Exposure
  WindExposed,                            !- Wind Exposure
  ,                                       !- View Factor to Ground
  ,                                       !- Number of Vertices
  0, 50, 4,                               !- X,Y,Z Vertex 1 {m}
  0, 50, 0,                               !- X,Y,Z Vertex 2 {m}
  0, 0, 0,                                !- X,Y,Z Vertex 3 {m}
  0, 0, 4;                                !- X,Y,Z Vertex 4 {m}

OS:Surface,
  {77a371d7-9ae0-4d90-b396-7b8cad997c3e}, !- Handle
  Surface 3,                              !- Name
  Wall,                                   !- Surface Type
  ,                                       !- Construction Name
  {be2136ba-952c-4117-962b-c30c6d4b2cec}, !- Space Name
  Outdoors,                               !- Outside Boundary Condition
  ,                                       !- Outside Boundary Condition Object
  SunExposed,                             !- Sun Exposure
  WindExposed,                            !- Wind Exposure
  ,                                       !- View Factor to Ground
  ,                                       !- Number of Vertices
  100, 50, 4,                             !- X,Y,Z Vertex 1 {m}
  100, 50, 0,                             !- X,Y,Z Vertex 2 {m}
  0, 50, 0,                               !- X,Y,Z Vertex 3 {m}
  0, 50, 4;                               !- X,Y,Z Vertex 4 {m}

OS:Surface,
  {f4ee1b62-df78-45d0-a8d4-8ad14f9993b1}, !- Handle
  Surface 4,                              !- Name
  Wall,                                   !- Surface Type
  ,                                       !- Construction Name
  {be2136ba-952c-4117-962b-c30c6d4b2cec}, !- Space Name
  Outdoors,                               !- Outside Boundary Condition
  ,                                       !- Outside Boundary Condition Object
  SunExposed,                             !- Sun Exposure
  WindExposed,                            !- Wind Exposure
  ,                                       !- View Factor to Ground
  ,                                       !- Number of Vertices
  100, 0, 4,                              !- X,Y,Z Vertex 1 {m}
  100, 0, 0,                              !- X,Y,Z Vertex 2 {m}
  100, 50, 0,                             !- X,Y,Z Vertex 3 {m}
  100, 50, 4;                             !- X,Y,Z Vertex 4 {m}

OS:Surface,
  {005ba489-45a5-4a02-b4b2-b6970913c235}, !- Handle
  Surface 5,                              !- Name
  Wall,                                   !- Surface Type
  ,                                       !- Construction Name
  {be2136ba-952c-4117-962b-c30c6d4b2cec}, !- Space Name
  Outdoors,                               !- Outside Boundary Condition
  ,                                       !- Outside Boundary Condition Object
  SunExposed,                             !- Sun Exposure
  WindExposed,                            !- Wind Exposure
  ,                                       !- View Factor to Ground
  ,                                       !- Number of Vertices
  0, 0, 4,                                !- X,Y,Z Vertex 1 {m}
  0, 0, 0,                                !- X,Y,Z Vertex 2 {m}
  100, 0, 0,                              !- X,Y,Z Vertex 3 {m}
  100, 0, 4;                              !- X,Y,Z Vertex 4 {m}

OS:Surface,
  {9c7ea368-e708-4a50-9822-849357ea308c}, !- Handle
  Surface 6,                              !- Name
  RoofCeiling,                            !- Surface Type
  ,                                       !- Construction Name
  {be2136ba-952c-4117-962b-c30c6d4b2cec}, !- Space Name
  Outdoors,                               !- Outside Boundary Condition
  ,                                       !- Outside Boundary Condition Object
  SunExposed,                             !- Sun Exposure
  WindExposed,                            !- Wind Exposure
  ,                                       !- View Factor to Ground
  ,                                       !- Number of Vertices
  100, 0, 4,                              !- X,Y,Z Vertex 1 {m}
  100, 50, 4,                             !- X,Y,Z Vertex 2 {m}
  0, 50, 4,                               !- X,Y,Z Vertex 3 {m}
  0, 0, 4;                                !- X,Y,Z Vertex 4 {m}

OS:ThermalZone,
  {ebf9bc06-c47b-43c5-a620-85d81b4f2f5a}, !- Handle
  Story 1 Core Thermal Zone,              !- Name
  ,                                       !- Multiplier
  ,                                       !- Ceiling Height {m}
  ,                                       !- Volume {m3}
  ,                                       !- Floor Area {m2}
  ,                                       !- Zone Inside Convection Algorithm
  ,                                       !- Zone Outside Convection Algorithm
  ,                                       !- Zone Conditioning Equipment List Name
  {2897dd3a-066b-473a-856c-52ce7137c363}, !- Zone Air Inlet Port List
  {91ba9ec5-aefc-44c1-b66f-a177201c7581}, !- Zone Air Exhaust Port List
  {ccfa066f-d759-4d4c-bebf-6635b79e3cad}, !- Zone Air Node Name
  {aff82b00-7ea7-4ac8-9cc5-0ee3f6063a71}, !- Zone Return Air Port List
  ,                                       !- Primary Daylighting Control Name
  ,                                       !- Fraction of Zone Controlled by Primary Daylighting Control
  ,                                       !- Secondary Daylighting Control Name
  ,                                       !- Fraction of Zone Controlled by Secondary Daylighting Control
  ,                                       !- Illuminance Map Name
  ,                                       !- Group Rendering Name
  {b9d441c5-d1d1-49dc-9466-01c170e099f0}, !- Thermostat Name
  No;                                     !- Use Ideal Air Loads

OS:Node,
  {46a84527-8585-4230-9eb9-7853a8ef8e64}, !- Handle
  Node 1,                                 !- Name
  {ccfa066f-d759-4d4c-bebf-6635b79e3cad}, !- Inlet Port
  ;                                       !- Outlet Port

OS:Connection,
  {ccfa066f-d759-4d4c-bebf-6635b79e3cad}, !- Handle
  {8a1ff655-4b3f-47a3-9377-efb81ef2cab9}, !- Name
  {ebf9bc06-c47b-43c5-a620-85d81b4f2f5a}, !- Source Object
  11,                                     !- Outlet Port
  {46a84527-8585-4230-9eb9-7853a8ef8e64}, !- Target Object
  2;                                      !- Inlet Port

OS:PortList,
  {2897dd3a-066b-473a-856c-52ce7137c363}, !- Handle
  {3103724c-9b29-41a6-98a1-64550c698b55}, !- Name
  {ebf9bc06-c47b-43c5-a620-85d81b4f2f5a}, !- HVAC Component
  {25462df9-3f43-4d31-a816-527bd9701f6f}; !- Port 1

OS:PortList,
  {91ba9ec5-aefc-44c1-b66f-a177201c7581}, !- Handle
  {319dc175-17e7-4e70-bdb9-8c7930c77ea8}, !- Name
  {ebf9bc06-c47b-43c5-a620-85d81b4f2f5a}; !- HVAC Component

OS:PortList,
  {aff82b00-7ea7-4ac8-9cc5-0ee3f6063a71}, !- Handle
  {39207ae2-b488-4155-950a-38b5e3b7beef}, !- Name
  {ebf9bc06-c47b-43c5-a620-85d81b4f2f5a}, !- HVAC Component
  {5548961b-8ede-4d9a-bef6-808c34bc4640}; !- Port 1

OS:Sizing:Zone,
  {c58b5459-3f57-4b5b-a0bf-1417ef4f7de0}, !- Handle
  {ebf9bc06-c47b-43c5-a620-85d81b4f2f5a}, !- Zone or ZoneList Name
  SupplyAirTemperature,                   !- Zone Cooling Design Supply Air Temperature Input Method
  14,                                     !- Zone Cooling Design Supply Air Temperature {C}
  11.11,                                  !- Zone Cooling Design Supply Air Temperature Difference {deltaC}
  SupplyAirTemperature,                   !- Zone Heating Design Supply Air Temperature Input Method
  40,                                     !- Zone Heating Design Supply Air Temperature {C}
  11.11,                                  !- Zone Heating Design Supply Air Temperature Difference {deltaC}
  0.0085,                                 !- Zone Cooling Design Supply Air Humidity Ratio {kg-H2O/kg-air}
  0.008,                                  !- Zone Heating Design Supply Air Humidity Ratio {kg-H2O/kg-air}
  ,                                       !- Zone Heating Sizing Factor
  ,                                       !- Zone Cooling Sizing Factor
  DesignDay,                              !- Cooling Design Air Flow Method
  ,                                       !- Cooling Design Air Flow Rate {m3/s}
  ,                                       !- Cooling Minimum Air Flow per Zone Floor Area {m3/s-m2}
  ,                                       !- Cooling Minimum Air Flow {m3/s}
  ,                                       !- Cooling Minimum Air Flow Fraction
  DesignDay,                              !- Heating Design Air Flow Method
  ,                                       !- Heating Design Air Flow Rate {m3/s}
  ,                                       !- Heating Maximum Air Flow per Zone Floor Area {m3/s-m2}
  ,                                       !- Heating Maximum Air Flow {m3/s}
  ,                                       !- Heating Maximum Air Flow Fraction
  No,                                     !- Account for Dedicated Outdoor Air System
  NeutralSupplyAir,                       !- Dedicated Outdoor Air System Control Strategy
  autosize,                               !- Dedicated Outdoor Air Low Setpoint Temperature for Design {C}
  autosize;                               !- Dedicated Outdoor Air High Setpoint Temperature for Design {C}

OS:ZoneHVAC:EquipmentList,
  {e77792a7-b710-4c88-8359-3f7514e99b07}, !- Handle
  Zone HVAC Equipment List 1,             !- Name
  {ebf9bc06-c47b-43c5-a620-85d81b4f2f5a}, !- Thermal Zone
  ,                                       !- Load Distribution Scheme
  {42beaa2d-b927-4fd1-8f9c-e90b7041b14b}, !- Zone Equipment 1
  1,                                      !- Zone Equipment Cooling Sequence 1
  1,                                      !- Zone Equipment Heating or No-Load Sequence 1
  ,                                       !- Zone Equipment Sequential Cooling Fraction Schedule Name 1
  ,                                       !- Zone Equipment Sequential Heating Fraction Schedule Name 1
  {098aa2cd-48a6-40d4-b9c3-b5049ca9519f}, !- Zone Equipment 2
  2,                                      !- Zone Equipment Cooling Sequence 2
  2,                                      !- Zone Equipment Heating or No-Load Sequence 2
  ,                                       !- Zone Equipment Sequential Cooling Fraction Schedule Name 2
  ;                                       !- Zone Equipment Sequential Heating Fraction Schedule Name 2

OS:SubSurface,
  {42a58529-dfa0-4f73-b7ad-3547ec3f2de3}, !- Handle
  Sub Surface 1,                          !- Name
  FixedWindow,                            !- Sub Surface Type
  ,                                       !- Construction Name
  {005ba489-45a5-4a02-b4b2-b6970913c235}, !- Surface Name
  ,                                       !- Outside Boundary Condition Object
  ,                                       !- View Factor to Ground
  ,                                       !- Shading Control Name
  ,                                       !- Frame and Divider Name
  ,                                       !- Multiplier
  ,                                       !- Number of Vertices
  0.0254, 0, 2.60081321311226,            !- X,Y,Z Vertex 1 {m}
  0.0254, 0, 1,                           !- X,Y,Z Vertex 2 {m}
  99.9746, 0, 1,                          !- X,Y,Z Vertex 3 {m}
  99.9746, 0, 2.60081321311226;           !- X,Y,Z Vertex 4 {m}

OS:SubSurface,
  {caf13ef9-44a9-48c9-9ba8-04f766a2893c}, !- Handle
  Sub Surface 2,                          !- Name
  FixedWindow,                            !- Sub Surface Type
  ,                                       !- Construction Name
  {f4ee1b62-df78-45d0-a8d4-8ad14f9993b1}, !- Surface Name
  ,                                       !- Outside Boundary Condition Object
  ,                                       !- View Factor to Ground
  ,                                       !- Shading Control Name
  ,                                       !- Frame and Divider Name
  ,                                       !- Multiplier
  ,                                       !- Number of Vertices
  100, 0.0254, 2.60162725328934,          !- X,Y,Z Vertex 1 {m}
  100, 0.0254, 1,                         !- X,Y,Z Vertex 2 {m}
  100, 49.9746, 1,                        !- X,Y,Z Vertex 3 {m}
  100, 49.9746, 2.60162725328934;         !- X,Y,Z Vertex 4 {m}

OS:SubSurface,
  {47aa30e5-1bab-49c4-870a-fad7f468350d}, !- Handle
  Sub Surface 3,                          !- Name
  FixedWindow,                            !- Sub Surface Type
  ,                                       !- Construction Name
  {77a371d7-9ae0-4d90-b396-7b8cad997c3e}, !- Surface Name
  ,                                       !- Outside Boundary Condition Object
  ,                                       !- View Factor to Ground
  ,                                       !- Shading Control Name
  ,                                       !- Frame and Divider Name
  ,                                       !- Multiplier
  ,                                       !- Number of Vertices
  99.9746, 50, 2.60081321311226,          !- X,Y,Z Vertex 1 {m}
  99.9746, 50, 1,                         !- X,Y,Z Vertex 2 {m}
  0.0253999999999905, 50, 1,              !- X,Y,Z Vertex 3 {m}
  0.0253999999999905, 50, 2.60081321311226; !- X,Y,Z Vertex 4 {m}

OS:SubSurface,
  {9213b6cc-edf7-4dcd-b582-2fea63f9f1de}, !- Handle
  Sub Surface 4,                          !- Name
  FixedWindow,                            !- Sub Surface Type
  ,                                       !- Construction Name
  {bd91495c-01a9-49cd-9640-f16f3de6115c}, !- Surface Name
  ,                                       !- Outside Boundary Condition Object
  ,                                       !- View Factor to Ground
  ,                                       !- Shading Control Name
  ,                                       !- Frame and Divider Name
  ,                                       !- Multiplier
  ,                                       !- Number of Vertices
  0, 49.9746, 2.60162725328934,           !- X,Y,Z Vertex 1 {m}
  0, 49.9746, 1,                          !- X,Y,Z Vertex 2 {m}
  0, 0.0254000000000048, 1,               !- X,Y,Z Vertex 3 {m}
  0, 0.0254000000000048, 2.60162725328934; !- X,Y,Z Vertex 4 {m}

OS:Schedule:Ruleset,
  {6963a0e0-8572-45ce-afe2-390ae65a0b1d}, !- Handle
  Cooling Sch,                            !- Name
  {2f8e1633-a3c8-4434-8805-a851c4a84276}, !- Schedule Type Limits Name
  {e1cf6bad-de47-4321-a22a-2361b4f05aa2}; !- Default Day Schedule Name

OS:Schedule:Day,
  {e1cf6bad-de47-4321-a22a-2361b4f05aa2}, !- Handle
  Cooling Sch Default,                    !- Name
  {2f8e1633-a3c8-4434-8805-a851c4a84276}, !- Schedule Type Limits Name
  ,                                       !- Interpolate to Timestep
  24,                                     !- Hour 1
  0,                                      !- Minute 1
  28;                                     !- Value Until Time 1

OS:Schedule:Ruleset,
  {9a2eb76d-2e58-4457-a601-441820e566eb}, !- Handle
  Heating Sch,                            !- Name
  {2f8e1633-a3c8-4434-8805-a851c4a84276}, !- Schedule Type Limits Name
  {6e61c66f-f62f-4e62-b414-2a25de786adc}; !- Default Day Schedule Name

OS:Schedule:Day,
  {6e61c66f-f62f-4e62-b414-2a25de786adc}, !- Handle
  Heating Sch Default,                    !- Name
  {2f8e1633-a3c8-4434-8805-a851c4a84276}, !- Schedule Type Limits Name
  ,                                       !- Interpolate to Timestep
  24,                                     !- Hour 1
  0,                                      !- Minute 1
  24;                                     !- Value Until Time 1

OS:ThermostatSetpoint:DualSetpoint,
  {b9d441c5-d1d1-49dc-9466-01c170e099f0}, !- Handle
  Thermostat Setpoint Dual Setpoint 1,    !- Name
  {9a2eb76d-2e58-4457-a601-441820e566eb}, !- Heating Setpoint Temperature Schedule Name
  {6963a0e0-8572-45ce-afe2-390ae65a0b1d}; !- Cooling Setpoint Temperature Schedule Name

OS:ScheduleTypeLimits,
  {2f8e1633-a3c8-4434-8805-a851c4a84276}, !- Handle
  Temperature,                            !- Name
  ,                                       !- Lower Limit Value
  ,                                       !- Upper Limit Value
  Continuous,                             !- Numeric Type
  Temperature;                            !- Unit Type

OS:DefaultConstructionSet,
  {d7a7e75f-c10c-4e3a-9155-a68ba470b452}, !- Handle
  ASHRAE_189.1-2009_ClimateZone 4-5 (mdoff)_ConstSet, !- Name
  {2479a57c-7bcc-4a21-b43d-d3d5bdeda8cb}, !- Default Exterior Surface Constructions Name
  {4405010e-9b6b-4a94-b045-2ce55e17bd21}, !- Default Interior Surface Constructions Name
  {7236938b-d0d0-4f86-9693-0f705037f4ab}, !- Default Ground Contact Surface Constructions Name
  {cf986440-da47-400d-8849-9e0db8ebe0ba}, !- Default Exterior SubSurface Constructions Name
  {1c409f7e-1e1e-4794-a978-0833d65d2d65}, !- Default Interior SubSurface Constructions Name
  {1e6128a0-9b91-42e4-80be-178a704248c8}, !- Interior Partition Construction Name
  ,                                       !- Space Shading Construction Name
  ,                                       !- Building Shading Construction Name
  ,                                       !- Site Shading Construction Name
  ;                                       !- Adiabatic Surface Construction Name

OS:DefaultSurfaceConstructions,
  {2479a57c-7bcc-4a21-b43d-d3d5bdeda8cb}, !- Handle
  ASHRAE_189.1-2009_ClimateZone 4-5 (mdoff)_Exterior_DefSurfCons, !- Name
  {a5cacdf2-a515-4e3d-a7d0-bb4f1881f8e4}, !- Floor Construction Name
  {e04e7950-1f30-4e0b-b7a7-165e971b4220}, !- Wall Construction Name
  {df88b7bc-2337-41f2-8b6e-a98c4c8b84ce}; !- Roof Ceiling Construction Name

OS:DefaultSurfaceConstructions,
  {4405010e-9b6b-4a94-b045-2ce55e17bd21}, !- Handle
  000_Interior_DefSurfCons,               !- Name
  {a742da25-f014-4131-9a15-aec34efa8cc5}, !- Floor Construction Name
  {1842d5f4-5277-4c38-b85b-a4caf64495b8}, !- Wall Construction Name
  {184d6438-08e4-43fd-96c6-9e89b7c74251}; !- Roof Ceiling Construction Name

OS:DefaultSurfaceConstructions,
  {7236938b-d0d0-4f86-9693-0f705037f4ab}, !- Handle
  000_Ground_DefSurfCons,                 !- Name
  {a5cacdf2-a515-4e3d-a7d0-bb4f1881f8e4}, !- Floor Construction Name
  {a5cacdf2-a515-4e3d-a7d0-bb4f1881f8e4}, !- Wall Construction Name
  {a5cacdf2-a515-4e3d-a7d0-bb4f1881f8e4}; !- Roof Ceiling Construction Name

OS:DefaultSubSurfaceConstructions,
  {cf986440-da47-400d-8849-9e0db8ebe0ba}, !- Handle
  ASHRAE_189.1-2009_ClimateZone 4-5 (mdoff)_Exterior_DefSubCons, !- Name
  {2ff94585-80ca-40e4-9026-cbbbebdd3f85}, !- Fixed Window Construction Name
  {2ff94585-80ca-40e4-9026-cbbbebdd3f85}, !- Operable Window Construction Name
  {0793267f-0c51-4ca1-96a8-3cf61a620a64}, !- Door Construction Name
  {9a31c9e6-1e6c-49fe-910a-90aaa718a5a2}, !- Glass Door Construction Name
  ,                                       !- Overhead Door Construction Name
  {9a31c9e6-1e6c-49fe-910a-90aaa718a5a2}, !- Skylight Construction Name
  {bd13c24c-ca50-41a9-a915-229f7d2b7f45}, !- Tubular Daylight Dome Construction Name
  {bd13c24c-ca50-41a9-a915-229f7d2b7f45}; !- Tubular Daylight Diffuser Construction Name

OS:DefaultSubSurfaceConstructions,
  {1c409f7e-1e1e-4794-a978-0833d65d2d65}, !- Handle
  000_Interior_DefSubCons,                !- Name
  {bd13c24c-ca50-41a9-a915-229f7d2b7f45}, !- Fixed Window Construction Name
  {bd13c24c-ca50-41a9-a915-229f7d2b7f45}, !- Operable Window Construction Name
  {7666013a-8c20-41a8-ae53-a49ea71b7a2e}, !- Door Construction Name
  {9a31c9e6-1e6c-49fe-910a-90aaa718a5a2}, !- Glass Door Construction Name
  ,                                       !- Overhead Door Construction Name
  {9a31c9e6-1e6c-49fe-910a-90aaa718a5a2}, !- Skylight Construction Name
  {bd13c24c-ca50-41a9-a915-229f7d2b7f45}, !- Tubular Daylight Dome Construction Name
  {bd13c24c-ca50-41a9-a915-229f7d2b7f45}; !- Tubular Daylight Diffuser Construction Name

OS:Construction,
  {1e6128a0-9b91-42e4-80be-178a704248c8}, !- Handle
  000_Interior Partition,                 !- Name
  ,                                       !- Surface Rendering Name
  {750a137a-ba8d-4e54-be97-ba5c8d650b67}; !- Layer 1

OS:Construction,
  {a5cacdf2-a515-4e3d-a7d0-bb4f1881f8e4}, !- Handle
  000_ExtSlabCarpet_4in_ClimateZone 1-8,  !- Name
  ,                                       !- Surface Rendering Name
  {f5180f3e-8ce6-4849-bb4f-1ddadb697b3f}, !- Layer 1
  {ab922028-fc74-457f-afa3-7d5810421176}; !- Layer 2

OS:Construction,
  {e04e7950-1f30-4e0b-b7a7-165e971b4220}, !- Handle
  ASHRAE_189.1-2009_ExtWall_SteelFrame_ClimateZone 4-8, !- Name
  ,                                       !- Surface Rendering Name
  {d1b7025a-7a09-4f13-a105-762e9a55d122}, !- Layer 1
  {e45f7de1-5768-4e61-93f3-8499b599586b}, !- Layer 2
  {a2b23408-1040-4e40-9c33-f3a9d3f47087}; !- Layer 3

OS:Construction,
  {df88b7bc-2337-41f2-8b6e-a98c4c8b84ce}, !- Handle
  ASHRAE_189.1-2009_ExtRoof_IEAD_ClimateZone 2-5, !- Name
  ,                                       !- Surface Rendering Name
  {f380414c-cf15-467e-94d5-4790b3a5598b}, !- Layer 1
  {201bfdfb-317c-4247-a31a-5141d58477c6}, !- Layer 2
  {60c9b85d-05f2-40bb-91a9-840d913ecd43}; !- Layer 3

OS:Construction,
  {a742da25-f014-4131-9a15-aec34efa8cc5}, !- Handle
  000_Interior Floor,                     !- Name
  ,                                       !- Surface Rendering Name
  {fa8cb20b-d216-43bc-9ab2-ba1455b8a528}, !- Layer 1
  {dce227e7-efd1-43a6-a043-ab70f521586e}, !- Layer 2
  {90ca42b9-1ad7-462a-96fc-cd8b8538a451}; !- Layer 3

OS:Construction,
  {1842d5f4-5277-4c38-b85b-a4caf64495b8}, !- Handle
  000_Interior Wall,                      !- Name
  ,                                       !- Surface Rendering Name
  {200c30c3-9358-4d9b-97b3-9f17bf65c29c}, !- Layer 1
  {f2037660-d93b-4e07-9253-ef8269ad88c2}, !- Layer 2
  {200c30c3-9358-4d9b-97b3-9f17bf65c29c}; !- Layer 3

OS:Construction,
  {184d6438-08e4-43fd-96c6-9e89b7c74251}, !- Handle
  000_Interior Ceiling,                   !- Name
  ,                                       !- Surface Rendering Name
  {90ca42b9-1ad7-462a-96fc-cd8b8538a451}, !- Layer 1
  {dce227e7-efd1-43a6-a043-ab70f521586e}, !- Layer 2
  {fa8cb20b-d216-43bc-9ab2-ba1455b8a528}; !- Layer 3

OS:Construction,
  {2ff94585-80ca-40e4-9026-cbbbebdd3f85}, !- Handle
  ASHRAE_189.1-2009_ExtWindow_ClimateZone 4-5, !- Name
  ,                                       !- Surface Rendering Name
  {ba767b73-5fb0-407a-ae8a-cae10b6b1d9d}; !- Layer 1

OS:Construction,
  {0793267f-0c51-4ca1-96a8-3cf61a620a64}, !- Handle
  000_Exterior Door,                      !- Name
  ,                                       !- Surface Rendering Name
  {ec6c8ce5-ce13-4644-868e-fae49d13d3e0}, !- Layer 1
  {073d8a75-5b15-4429-98b3-3bea6b82f234}; !- Layer 2

OS:Construction,
  {9a31c9e6-1e6c-49fe-910a-90aaa718a5a2}, !- Handle
  000_Exterior Window,                    !- Name
  ,                                       !- Surface Rendering Name
  {b68130d7-079a-4b56-9ab8-e8ba3e321fc1}, !- Layer 1
  {3f45f32b-51b7-4a64-8e2e-e488771885d9}, !- Layer 2
  {b68130d7-079a-4b56-9ab8-e8ba3e321fc1}; !- Layer 3

OS:Construction,
  {bd13c24c-ca50-41a9-a915-229f7d2b7f45}, !- Handle
  000_Interior Window,                    !- Name
  ,                                       !- Surface Rendering Name
  {b68130d7-079a-4b56-9ab8-e8ba3e321fc1}; !- Layer 1

OS:Construction,
  {7666013a-8c20-41a8-ae53-a49ea71b7a2e}, !- Handle
  000_Interior Door,                      !- Name
  ,                                       !- Surface Rendering Name
  {750a137a-ba8d-4e54-be97-ba5c8d650b67}; !- Layer 1

OS:Material,
  {750a137a-ba8d-4e54-be97-ba5c8d650b67}, !- Handle
  000_G05 25mm wood,                      !- Name
  MediumSmooth,                           !- Roughness
  0.025399999999999999,                   !- Thickness {m}
  0.14999999999999999,                    !- Conductivity {W/m-K}
  608,                                    !- Density {kg/m3}
  1630;                                   !- Specific Heat {J/kg-K}

OS:Material,
  {f5180f3e-8ce6-4849-bb4f-1ddadb697b3f}, !- Handle
  MAT-CC05 4 HW CONCRETE,                 !- Name
  Rough,                                  !- Roughness
  0.1016,                                 !- Thickness {m}
  1.3109999999999999,                     !- Conductivity {W/m-K}
  2240,                                   !- Density {kg/m3}
  836.8,                                  !- Specific Heat {J/kg-K}
  0.90000000000000002,                    !- Thermal Absorptance
  0.69999999999999996,                    !- Solar Absorptance
  0.69999999999999996;                    !- Visible Absorptance

OS:Material:NoMass,
  {ab922028-fc74-457f-afa3-7d5810421176}, !- Handle
  CP02 CARPET PAD,                        !- Name
  VeryRough,                              !- Roughness
  0.2165,                                 !- Thermal Resistance
  0.90000000000000002,                    !- Thermal Absorptance
  0.69999999999999996,                    !- Solar Absorptance
  0.80000000000000004;                    !- Visible Absorptance

OS:Material:NoMass,
  {d1b7025a-7a09-4f13-a105-762e9a55d122}, !- Handle
  MAT-SHEATH,                             !- Name
  Rough,                                  !- Roughness
  0.36259999999999998,                    !- Thermal Resistance
  0.90000000000000002,                    !- Thermal Absorptance
  0.69999999999999996,                    !- Solar Absorptance
  0.69999999999999996;                    !- Visible Absorptance

OS:Material,
  {e45f7de1-5768-4e61-93f3-8499b599586b}, !- Handle
  Wall Insulation [39],                   !- Name
  MediumRough,                            !- Roughness
  0.11840000000000001,                    !- Thickness {m}
  0.044999999999999998,                   !- Conductivity {W/m-K}
  265,                                    !- Density {kg/m3}
  836.8,                                  !- Specific Heat {J/kg-K}
  0.90000000000000002,                    !- Thermal Absorptance
  0.69999999999999996,                    !- Solar Absorptance
  0.69999999999999996;                    !- Visible Absorptance

OS:Material,
  {a2b23408-1040-4e40-9c33-f3a9d3f47087}, !- Handle
  1/2IN Gypsum,                           !- Name
  Smooth,                                 !- Roughness
  0.012699999999999999,                   !- Thickness {m}
  0.16,                                   !- Conductivity {W/m-K}
  784.89999999999998,                     !- Density {kg/m3}
  830,                                    !- Specific Heat {J/kg-K}
  0.90000000000000002,                    !- Thermal Absorptance
  0.92000000000000004,                    !- Solar Absorptance
  0.92000000000000004;                    !- Visible Absorptance

OS:Material,
  {f380414c-cf15-467e-94d5-4790b3a5598b}, !- Handle
  Roof Membrane,                          !- Name
  VeryRough,                              !- Roughness
  0.0094999999999999998,                  !- Thickness {m}
  0.16,                                   !- Conductivity {W/m-K}
  1121.29,                                !- Density {kg/m3}
  1460,                                   !- Specific Heat {J/kg-K}
  0.90000000000000002,                    !- Thermal Absorptance