
OS:Version,
  {6ca25016-f303-42f6-b831-cb5402d0286a}, !- Handle
  3.2.0;                                  !- Version Identifier

OS:BuildingStory,
  {01e47fee-629a-4b72-8804-0d30282843f5}, !- Handle
  Story 1,                                !- Name
  0,                                      !- Nominal Z Coordinate {m}
  4,                                      !- Nominal Floor to Floor Height {m}
  ,                                       !- Default Construction Set Name
  ,                                       !- Default Schedule Set Name
  ;                                       !- Group Rendering Name

OS:Space,
  {a4de2f67-f82f-483b-9cb6-12f96dec8ec9}, !- Handle
  Story 1 Core Space,                     !- Name
  ,                                       !- Space Type Name
  ,                                       !- Default Construction Set Name
  ,                                       !- Default Schedule Set Name
  -0,                                     !- Direction of Relative North {deg}
  0,                                      !- X Origin {m}
  0,                                      !- Y Origin {m}
  0,                                      !- Z Origin {m}
  {01e47fee-629a-4b72-8804-0d30282843f5}, !- Building Story Name
  {cb843158-38f4-4914-8d81-d9f707362723}; !- Thermal Zone Name

OS:Surface,
  {9612b39c-03e7-4d84-b3f7-b6863ad1b1b2}, !- Handle
  Surface 1,                              !- Name
  Floor,                                  !- Surface Type
  ,                                       !- Construction Name
  {a4de2f67-f82f-483b-9cb6-12f96dec8ec9}, !- Space Name
  Ground,                                 !- Outside Boundary Condition
  ,                                       !- Outside Boundary Condition Object
  NoSun,                                  !- Sun Exposure
  NoWind,                                 !- Wind Exposure
  ,                                       !- View Factor to Ground
  ,                                       !- Number of Vertices
  0, 0, 0,                                !- X,Y,Z Vertex 1 {m}
  0, 50, 0,                               !- X,Y,Z Vertex 2 {m}
  100, 50, 0,                             !- X,Y,Z Vertex 3 {m}
  100, 0, 0;                              !- X,Y,Z Vertex 4 {m}

OS:Surface,
  {cbdd262b-5894-4899-86bd-d778567d070f}, !- Handle
  Surface 2,                              !- Name
  Wall,                                   !- Surface Type
  ,                                       !- Construction Name
  {a4de2f67-f82f-483b-9cb6-12f96dec8ec9}, !- Space Name
  Outdoors,                               !- Outside Boundary Condition
  ,                                       !- Outside Boundary Condition Object
  SunExposed,                             !- Sun Exposure
  WindExposed,                            !- Wind Exposure
  ,                                       !- View Factor to Ground
  ,                                       !- Number of Vertices
  0, 50, 4,                               !- X,Y,Z Vertex 1 {m}
  0, 50, 0,                               !- X,Y,Z Vertex 2 {m}
  0, 0, 0,                                !- X,Y,Z Vertex 3 {m}
  0, 0, 4;                                !- X,Y,Z Vertex 4 {m}

OS:Surface,
  {75f6ad91-eb60-4f01-a88d-addc43d2975d}, !- Handle
  Surface 3,                              !- Name
  Wall,                                   !- Surface Type
  ,                                       !- Construction Name
  {a4de2f67-f82f-483b-9cb6-12f96dec8ec9}, !- Space Name
  Outdoors,                               !- Outside Boundary Condition
  ,                                       !- Outside Boundary Condition Object
  SunExposed,                             !- Sun Exposure
  WindExposed,                            !- Wind Exposure
  ,                                       !- View Factor to Ground
  ,                                       !- Number of Vertices
  100, 50, 4,                             !- X,Y,Z Vertex 1 {m}
  100, 50, 0,                             !- X,Y,Z Vertex 2 {m}
  0, 50, 0,                               !- X,Y,Z Vertex 3 {m}
  0, 50, 4;                               !- X,Y,Z Vertex 4 {m}

OS:Surface,
  {0de67ed5-9e8c-432a-a875-afd58cabe2c4}, !- Handle
  Surface 4,                              !- Name
  Wall,                                   !- Surface Type
  ,                                       !- Construction Name
  {a4de2f67-f82f-483b-9cb6-12f96dec8ec9}, !- Space Name
  Outdoors,                               !- Outside Boundary Condition
  ,                                       !- Outside Boundary Condition Object
  SunExposed,                             !- Sun Exposure
  WindExposed,                            !- Wind Exposure
  ,                                       !- View Factor to Ground
  ,                                       !- Number of Vertices
  100, 0, 4,                              !- X,Y,Z Vertex 1 {m}
  100, 0, 0,                              !- X,Y,Z Vertex 2 {m}
  100, 50, 0,                             !- X,Y,Z Vertex 3 {m}
  100, 50, 4;                             !- X,Y,Z Vertex 4 {m}

OS:Surface,
  {013120a3-82a2-4a7b-a814-8c106c387cf0}, !- Handle
  Surface 5,                              !- Name
  Wall,                                   !- Surface Type
  ,                                       !- Construction Name
  {a4de2f67-f82f-483b-9cb6-12f96dec8ec9}, !- Space Name
  Outdoors,                               !- Outside Boundary Condition
  ,                                       !- Outside Boundary Condition Object
  SunExposed,                             !- Sun Exposure
  WindExposed,                            !- Wind Exposure
  ,                                       !- View Factor to Ground
  ,                                       !- Number of Vertices
  0, 0, 4,                                !- X,Y,Z Vertex 1 {m}
  0, 0, 0,                                !- X,Y,Z Vertex 2 {m}
  100, 0, 0,                              !- X,Y,Z Vertex 3 {m}
  100, 0, 4;                              !- X,Y,Z Vertex 4 {m}

OS:Surface,
  {809a765c-171f-4a68-b1d6-47d90d76317f}, !- Handle
  Surface 6,                              !- Name
  RoofCeiling,                            !- Surface Type
  ,                                       !- Construction Name
  {a4de2f67-f82f-483b-9cb6-12f96dec8ec9}, !- Space Name
  Outdoors,                               !- Outside Boundary Condition
  ,                                       !- Outside Boundary Condition Object
  SunExposed,                             !- Sun Exposure
  WindExposed,                            !- Wind Exposure
  ,                                       !- View Factor to Ground
  ,                                       !- Number of Vertices
  100, 0, 4,                              !- X,Y,Z Vertex 1 {m}
  100, 50, 4,                             !- X,Y,Z Vertex 2 {m}
  0, 50, 4,                               !- X,Y,Z Vertex 3 {m}
  0, 0, 4;                                !- X,Y,Z Vertex 4 {m}

OS:ThermalZone,
  {cb843158-38f4-4914-8d81-d9f707362723}, !- Handle
  Story 1 Core Thermal Zone,              !- Name
  ,                                       !- Multiplier
  ,                                       !- Ceiling Height {m}
  ,                                       !- Volume {m3}
  ,                                       !- Floor Area {m2}
  ,                                       !- Zone Inside Convection Algorithm
  ,                                       !- Zone Outside Convection Algorithm
  ,                                       !- Zone Conditioning Equipment List Name
  {1ca301b1-9f63-4f41-a328-1d843b2ccc22}, !- Zone Air Inlet Port List
  {07d6198d-80d7-4ca7-900b-0ecb3193e1c9}, !- Zone Air Exhaust Port List
  {93c3053d-df11-4eba-bae7-d11fe3e6007c}, !- Zone Air Node Name
  {006cb7f2-f389-4a8b-8413-3df0a58e4e4a}, !- Zone Return Air Port List
  ,                                       !- Primary Daylighting Control Name
  ,                                       !- Fraction of Zone Controlled by Primary Daylighting Control
  ,                                       !- Secondary Daylighting Control Name
  ,                                       !- Fraction of Zone Controlled by Secondary Daylighting Control
  ,                                       !- Illuminance Map Name
  ,                                       !- Group Rendering Name
  {3385416d-a7c3-4aea-ad16-64a67a87facb}, !- Thermostat Name
  No;                                     !- Use Ideal Air Loads

OS:Node,
  {88f6751e-dcbc-4cd3-9cf2-f29c3e6e4c57}, !- Handle
  Node 1,                                 !- Name
  {93c3053d-df11-4eba-bae7-d11fe3e6007c}, !- Inlet Port
  ;                                       !- Outlet Port

OS:Connection,
  {93c3053d-df11-4eba-bae7-d11fe3e6007c}, !- Handle
  {cb843158-38f4-4914-8d81-d9f707362723}, !- Source Object
  11,                                     !- Outlet Port
  {88f6751e-dcbc-4cd3-9cf2-f29c3e6e4c57}, !- Target Object
  2;                                      !- Inlet Port

OS:PortList,
  {1ca301b1-9f63-4f41-a328-1d843b2ccc22}, !- Handle
  {cb843158-38f4-4914-8d81-d9f707362723}; !- HVAC Component

OS:PortList,
  {07d6198d-80d7-4ca7-900b-0ecb3193e1c9}, !- Handle
  {cb843158-38f4-4914-8d81-d9f707362723}; !- HVAC Component

OS:PortList,
  {006cb7f2-f389-4a8b-8413-3df0a58e4e4a}, !- Handle
  {cb843158-38f4-4914-8d81-d9f707362723}; !- HVAC Component

OS:Sizing:Zone,
  {f754e61a-0549-4f4d-945d-b084e368662e}, !- Handle
  {cb843158-38f4-4914-8d81-d9f707362723}, !- Zone or ZoneList Name
  SupplyAirTemperature,                   !- Zone Cooling Design Supply Air Temperature Input Method
  14,                                     !- Zone Cooling Design Supply Air Temperature {C}
  11.11,                                  !- Zone Cooling Design Supply Air Temperature Difference {deltaC}
  SupplyAirTemperature,                   !- Zone Heating Design Supply Air Temperature Input Method
  40,                                     !- Zone Heating Design Supply Air Temperature {C}
  11.11,                                  !- Zone Heating Design Supply Air Temperature Difference {deltaC}
  0.0085,                                 !- Zone Cooling Design Supply Air Humidity Ratio {kg-H2O/kg-air}
  0.008,                                  !- Zone Heating Design Supply Air Humidity Ratio {kg-H2O/kg-air}
  ,                                       !- Zone Heating Sizing Factor
  ,                                       !- Zone Cooling Sizing Factor
  DesignDay,                              !- Cooling Design Air Flow Method
  ,                                       !- Cooling Design Air Flow Rate {m3/s}
  ,                                       !- Cooling Minimum Air Flow per Zone Floor Area {m3/s-m2}
  ,                                       !- Cooling Minimum Air Flow {m3/s}
  ,                                       !- Cooling Minimum Air Flow Fraction
  DesignDay,                              !- Heating Design Air Flow Method
  ,                                       !- Heating Design Air Flow Rate {m3/s}
  ,                                       !- Heating Maximum Air Flow per Zone Floor Area {m3/s-m2}
  ,                                       !- Heating Maximum Air Flow {m3/s}
  ,                                       !- Heating Maximum Air Flow Fraction
  No,                                     !- Account for Dedicated Outdoor Air System
  NeutralSupplyAir,                       !- Dedicated Outdoor Air System Control Strategy
  autosize,                               !- Dedicated Outdoor Air Low Setpoint Temperature for Design {C}
  autosize;                               !- Dedicated Outdoor Air High Setpoint Temperature for Design {C}

OS:ZoneHVAC:EquipmentList,
  {37f1dc5d-ebb8-4008-96d7-9682dc0bbc6a}, !- Handle
  Zone HVAC Equipment List 1,             !- Name
  {cb843158-38f4-4914-8d81-d9f707362723}, !- Thermal Zone
  ,                                       !- Load Distribution Scheme
  {744f2e78-4b9b-483f-80c2-32079c4b81e4}, !- Zone Equipment 1
  1,                                      !- Zone Equipment Cooling Sequence 1
  1,                                      !- Zone Equipment Heating or No-Load Sequence 1
  ,                                       !- Zone Equipment Sequential Cooling Fraction Schedule Name 1
  ;                                       !- Zone Equipment Sequential Heating Fraction Schedule Name 1

OS:SubSurface,
  {20c5d05b-e498-4193-94b0-53ac6b570e2d}, !- Handle
  Sub Surface 1,                          !- Name
  FixedWindow,                            !- Sub Surface Type
  ,                                       !- Construction Name
  {013120a3-82a2-4a7b-a814-8c106c387cf0}, !- Surface Name
  ,                                       !- Outside Boundary Condition Object
  ,                                       !- View Factor to Ground
  ,                                       !- Frame and Divider Name
  ,                                       !- Multiplier
  ,                                       !- Number of Vertices
  0.0254, 0, 2.60081321311226,            !- X,Y,Z Vertex 1 {m}
  0.0254, 0, 1,                           !- X,Y,Z Vertex 2 {m}
  99.9746, 0, 1,                          !- X,Y,Z Vertex 3 {m}
  99.9746, 0, 2.60081321311226;           !- X,Y,Z Vertex 4 {m}

OS:SubSurface,
  {ff14018e-7f63-4876-85b7-cf2a649e1822}, !- Handle
  Sub Surface 2,                          !- Name
  FixedWindow,                            !- Sub Surface Type
  ,                                       !- Construction Name
  {0de67ed5-9e8c-432a-a875-afd58cabe2c4}, !- Surface Name
  ,                                       !- Outside Boundary Condition Object
  ,                                       !- View Factor to Ground
  ,                                       !- Frame and Divider Name
  ,                                       !- Multiplier
  ,                                       !- Number of Vertices
  100, 0.0254, 2.60162725328934,          !- X,Y,Z Vertex 1 {m}
  100, 0.0254, 1,                         !- X,Y,Z Vertex 2 {m}
  100, 49.9746, 1,                        !- X,Y,Z Vertex 3 {m}
  100, 49.9746, 2.60162725328934;         !- X,Y,Z Vertex 4 {m}

OS:SubSurface,
  {ec43592d-7f4f-4b69-8451-39a1674f83e5}, !- Handle
  Sub Surface 3,                          !- Name
  FixedWindow,                            !- Sub Surface Type
  ,                                       !- Construction Name
  {75f6ad91-eb60-4f01-a88d-addc43d2975d}, !- Surface Name
  ,                                       !- Outside Boundary Condition Object
  ,                                       !- View Factor to Ground
  ,                                       !- Frame and Divider Name
  ,                                       !- Multiplier
  ,                                       !- Number of Vertices
  99.9746, 50, 2.60081321311226,          !- X,Y,Z Vertex 1 {m}
  99.9746, 50, 1,                         !- X,Y,Z Vertex 2 {m}
  0.0253999999999905, 50, 1,              !- X,Y,Z Vertex 3 {m}
  0.0253999999999905, 50, 2.60081321311226; !- X,Y,Z Vertex 4 {m}

OS:SubSurface,
  {741ff611-d89e-4f20-ae9c-7cf7b821398c}, !- Handle
  Sub Surface 4,                          !- Name
  FixedWindow,                            !- Sub Surface Type
  ,                                       !- Construction Name
  {cbdd262b-5894-4899-86bd-d778567d070f}, !- Surface Name
  ,                                       !- Outside Boundary Condition Object
  ,                                       !- View Factor to Ground
  ,                                       !- Frame and Divider Name
  ,                                       !- Multiplier
  ,                                       !- Number of Vertices
  0, 49.9746, 2.60162725328934,           !- X,Y,Z Vertex 1 {m}
  0, 49.9746, 1,                          !- X,Y,Z Vertex 2 {m}
  0, 0.0254000000000048, 1,               !- X,Y,Z Vertex 3 {m}
  0, 0.0254000000000048, 2.60162725328934; !- X,Y,Z Vertex 4 {m}

OS:DefaultConstructionSet,
  {824ab36b-c4bc-46b3-9561-82d299cd976f}, !- Handle
  ASHRAE_189.1-2009_ClimateZone 4-5 (mdoff)_ConstSet, !- Name
  {a7a0c663-9778-4c44-845d-04ba25fb7850}, !- Default Exterior Surface Constructions Name
  {c4dfb48f-3bd6-4caf-9a64-ad25d549f424}, !- Default Interior Surface Constructions Name
  {26fff115-7a2b-4e84-b94d-70f451eee5aa}, !- Default Ground Contact Surface Constructions Name
  {1701e2d8-8c2b-46a9-93d9-783e08304b9e}, !- Default Exterior SubSurface Constructions Name
  {4ac691a8-7b83-49ae-8373-639428729949}, !- Default Interior SubSurface Constructions Name
  {d7ef74f7-97c9-4f8f-a25c-8b6555b27337}, !- Interior Partition Construction Name
  ,                                       !- Space Shading Construction Name
  ,                                       !- Building Shading Construction Name
  ,                                       !- Site Shading Construction Name
  ;                                       !- Adiabatic Surface Construction Name

OS:DefaultSurfaceConstructions,
  {a7a0c663-9778-4c44-845d-04ba25fb7850}, !- Handle
  ASHRAE_189.1-2009_ClimateZone 4-5 (mdoff)_Exterior_DefSurfCons, !- Name
  {4eab24fc-9e1a-4fb1-a131-925cbfdb4d5a}, !- Floor Construction Name
  {83a5ed2c-c312-4f60-a094-8e00e68f868d}, !- Wall Construction Name
  {c5cb09c0-bc70-4ca7-aa89-fd9a94417af3}; !- Roof Ceiling Construction Name

OS:DefaultSurfaceConstructions,
  {c4dfb48f-3bd6-4caf-9a64-ad25d549f424}, !- Handle
  000_Interior_DefSurfCons,               !- Name
  {804a6aba-ea8e-4ff0-9fa0-bf58a71aa25e}, !- Floor Construction Name
  {cf422121-f584-4231-a2c0-f3d3a3c88079}, !- Wall Construction Name
  {779a90e0-3c8a-4747-8b68-4de00ccc6b6a}; !- Roof Ceiling Construction Name

OS:DefaultSurfaceConstructions,
  {26fff115-7a2b-4e84-b94d-70f451eee5aa}, !- Handle
  000_Ground_DefSurfCons,                 !- Name
  {4eab24fc-9e1a-4fb1-a131-925cbfdb4d5a}, !- Floor Construction Name
  {4eab24fc-9e1a-4fb1-a131-925cbfdb4d5a}, !- Wall Construction Name
  {4eab24fc-9e1a-4fb1-a131-925cbfdb4d5a}; !- Roof Ceiling Construction Name

OS:DefaultSubSurfaceConstructions,
  {1701e2d8-8c2b-46a9-93d9-783e08304b9e}, !- Handle
  ASHRAE_189.1-2009_ClimateZone 4-5 (mdoff)_Exterior_DefSubCons, !- Name
  {9bed6e6f-62c5-4bcf-942b-524e01a78648}, !- Fixed Window Construction Name
  {9bed6e6f-62c5-4bcf-942b-524e01a78648}, !- Operable Window Construction Name
  {a73a656f-9052-4607-a606-6f1ab896fa41}, !- Door Construction Name
  {d4930494-f2f3-4317-94a2-3172d69a0b57}, !- Glass Door Construction Name
  ,                                       !- Overhead Door Construction Name
  {d4930494-f2f3-4317-94a2-3172d69a0b57}, !- Skylight Construction Name
  {04c8f0e9-7fd8-4449-b1d9-77ae7cf5ffe6}, !- Tubular Daylight Dome Construction Name
  {04c8f0e9-7fd8-4449-b1d9-77ae7cf5ffe6}; !- Tubular Daylight Diffuser Construction Name

OS:DefaultSubSurfaceConstructions,
  {4ac691a8-7b83-49ae-8373-639428729949}, !- Handle
  000_Interior_DefSubCons,                !- Name
  {04c8f0e9-7fd8-4449-b1d9-77ae7cf5ffe6}, !- Fixed Window Construction Name
  {04c8f0e9-7fd8-4449-b1d9-77ae7cf5ffe6}, !- Operable Window Construction Name
  {65f8e275-cc4b-4d98-83bf-998d89cd2318}, !- Door Construction Name
  {d4930494-f2f3-4317-94a2-3172d69a0b57}, !- Glass Door Construction Name
  ,                                       !- Overhead Door Construction Name
  {d4930494-f2f3-4317-94a2-3172d69a0b57}, !- Skylight Construction Name
  {04c8f0e9-7fd8-4449-b1d9-77ae7cf5ffe6}, !- Tubular Daylight Dome Construction Name
  {04c8f0e9-7fd8-4449-b1d9-77ae7cf5ffe6}; !- Tubular Daylight Diffuser Construction Name

OS:Construction,
  {d7ef74f7-97c9-4f8f-a25c-8b6555b27337}, !- Handle
  000_Interior Partition,                 !- Name
  ,                                       !- Surface Rendering Name
  {9ef12a94-6335-4b5f-a6d9-44636b07e110}; !- Layer 1

OS:Construction,
  {4eab24fc-9e1a-4fb1-a131-925cbfdb4d5a}, !- Handle
  000_ExtSlabCarpet_4in_ClimateZone 1-8,  !- Name
  ,                                       !- Surface Rendering Name
  {7eeb99fa-772e-462b-8879-e438be0d4e00}, !- Layer 1
  {69aeb988-4812-432a-ab4e-65d2dff92b56}; !- Layer 2

OS:Construction,
  {83a5ed2c-c312-4f60-a094-8e00e68f868d}, !- Handle
  ASHRAE_189.1-2009_ExtWall_SteelFrame_ClimateZone 4-8, !- Name
  ,                                       !- Surface Rendering Name
  {4284a6b0-f486-4a72-862c-8db388911866}, !- Layer 1
  {b8f48948-efbb-4560-834f-25994b3c0641}, !- Layer 2
  {cb29c30e-35f2-4d2e-b9c1-ebafaae90818}; !- Layer 3

OS:Construction,
  {c5cb09c0-bc70-4ca7-aa89-fd9a94417af3}, !- Handle
  ASHRAE_189.1-2009_ExtRoof_IEAD_ClimateZone 2-5, !- Name
  ,                                       !- Surface Rendering Name
  {99c6c28b-8fa8-4140-9d1d-b29577cc0067}, !- Layer 1
  {9f14864e-25e5-4f59-b721-b869255956ad}, !- Layer 2
  {37f814f4-abd0-42f2-b88d-b90bcd0d1c39}; !- Layer 3

OS:Construction,
  {804a6aba-ea8e-4ff0-9fa0-bf58a71aa25e}, !- Handle
  000_Interior Floor,                     !- Name
  ,                                       !- Surface Rendering Name
  {3b093ab4-4bcb-463d-8de8-f7fbb4f7d659}, !- Layer 1
  {689b2022-1dc0-4470-bfc1-3f975c14f669}, !- Layer 2
  {c5a6e79c-9f99-4eef-908b-b2d0e4117b67}; !- Layer 3

OS:Construction,
  {cf422121-f584-4231-a2c0-f3d3a3c88079}, !- Handle
  000_Interior Wall,                      !- Name
  ,                                       !- Surface Rendering Name
  {7273c3ad-7075-4a25-a286-fcf5ea59aee9}, !- Layer 1
  {e8179111-2f09-4deb-9018-16259fb291c4}, !- Layer 2
  {7273c3ad-7075-4a25-a286-fcf5ea59aee9}; !- Layer 3

OS:Construction,
  {779a90e0-3c8a-4747-8b68-4de00ccc6b6a}, !- Handle
  000_Interior Ceiling,                   !- Name
  ,                                       !- Surface Rendering Name
  {c5a6e79c-9f99-4eef-908b-b2d0e4117b67}, !- Layer 1
  {689b2022-1dc0-4470-bfc1-3f975c14f669}, !- Layer 2
  {3b093ab4-4bcb-463d-8de8-f7fbb4f7d659}; !- Layer 3

OS:Construction,
  {9bed6e6f-62c5-4bcf-942b-524e01a78648}, !- Handle
  ASHRAE_189.1-2009_ExtWindow_ClimateZone 4-5, !- Name
  ,                                       !- Surface Rendering Name
  {c2443ae5-e257-4a00-b78f-f36fdad97b84}; !- Layer 1

OS:Construction,
  {a73a656f-9052-4607-a606-6f1ab896fa41}, !- Handle
  000_Exterior Door,                      !- Name
  ,                                       !- Surface Rendering Name
  {228b5cbf-a60a-437f-882e-b371fc7bf959}, !- Layer 1
  {6bd39e07-25e2-4830-9b99-a28772fd85f1}; !- Layer 2

OS:Construction,
  {d4930494-f2f3-4317-94a2-3172d69a0b57}, !- Handle
  000_Exterior Window,                    !- Name
  ,                                       !- Surface Rendering Name
  {d594bf76-7fba-43ad-971e-8d120e685227}, !- Layer 1
  {2eb3728a-effb-403d-88fe-f9e771f41dbe}, !- Layer 2
  {d594bf76-7fba-43ad-971e-8d120e685227}; !- Layer 3

OS:Construction,
  {04c8f0e9-7fd8-4449-b1d9-77ae7cf5ffe6}, !- Handle
  000_Interior Window,                    !- Name
  ,                                       !- Surface Rendering Name
  {d594bf76-7fba-43ad-971e-8d120e685227}; !- Layer 1

OS:Construction,
  {65f8e275-cc4b-4d98-83bf-998d89cd2318}, !- Handle
  000_Interior Door,                      !- Name
  ,                                       !- Surface Rendering Name
  {9ef12a94-6335-4b5f-a6d9-44636b07e110}; !- Layer 1

OS:Material,
  {9ef12a94-6335-4b5f-a6d9-44636b07e110}, !- Handle
  000_G05 25mm wood,                      !- Name
  MediumSmooth,                           !- Roughness
  0.025399999999999999,                   !- Thickness {m}
  0.14999999999999999,                    !- Conductivity {W/m-K}
  608,                                    !- Density {kg/m3}
  1630;                                   !- Specific Heat {J/kg-K}

OS:Material,
  {7eeb99fa-772e-462b-8879-e438be0d4e00}, !- Handle
  MAT-CC05 4 HW CONCRETE,                 !- Name
  Rough,                                  !- Roughness
  0.1016,                                 !- Thickness {m}
  1.3109999999999999,                     !- Conductivity {W/m-K}
  2240,                                   !- Density {kg/m3}
  836.8,                                  !- Specific Heat {J/kg-K}
  0.90000000000000002,                    !- Thermal Absorptance
  0.69999999999999996,                    !- Solar Absorptance
  0.69999999999999996;                    !- Visible Absorptance

OS:Material:NoMass,
  {69aeb988-4812-432a-ab4e-65d2dff92b56}, !- Handle
  CP02 CARPET PAD,                        !- Name
  VeryRough,                              !- Roughness
  0.2165,                                 !- Thermal Resistance
  0.90000000000000002,                    !- Thermal Absorptance
  0.69999999999999996,                    !- Solar Absorptance
  0.80000000000000004;                    !- Visible Absorptance

OS:Material:NoMass,
  {4284a6b0-f486-4a72-862c-8db388911866}, !- Handle
  MAT-SHEATH,                             !- Name
  Rough,                                  !- Roughness
  0.36259999999999998,                    !- Thermal Resistance
  0.90000000000000002,                    !- Thermal Absorptance
  0.69999999999999996,                    !- Solar Absorptance
  0.69999999999999996;                    !- Visible Absorptance

OS:Material,
  {b8f48948-efbb-4560-834f-25994b3c0641}, !- Handle
  Wall Insulation [39],                   !- Name
  MediumRough,                            !- Roughness
  0.11840000000000001,                    !- Thickness {m}
  0.044999999999999998,                   !- Conductivity {W/m-K}
  265,                                    !- Density {kg/m3}
  836.8,                                  !- Specific Heat {J/kg-K}
  0.90000000000000002,                    !- Thermal Absorptance
  0.69999999999999996,                    !- Solar Absorptance
  0.69999999999999996;                    !- Visible Absorptance

OS:Material,
  {cb29c30e-35f2-4d2e-b9c1-ebafaae90818}, !- Handle
  1/2IN Gypsum,                           !- Name
  Smooth,                                 !- Roughness
  0.012699999999999999,                   !- Thickness {m}
  0.16,                                   !- Conductivity {W/m-K}
  784.89999999999998,                     !- Density {kg/m3}
  830,                                    !- Specific Heat {J/kg-K}
  0.90000000000000002,                    !- Thermal Absorptance
  0.92000000000000004,                    !- Solar Absorptance
  0.92000000000000004;                    !- Visible Absorptance

OS:Material,
  {99c6c28b-8fa8-4140-9d1d-b29577cc0067}, !- Handle
  Roof Membrane,                          !- Name
  VeryRough,                              !- Roughness
  0.0094999999999999998,                  !- Thickness {m}
  0.16,                                   !- Conductivity {W/m-K}
  1121.29,                                !- Density {kg/m3}
  1460,                                   !- Specific Heat {J/kg-K}
  0.90000000000000002,                    !- Thermal Absorptance
  0.69999999999999996,                    !- Solar Absorptance
  0.69999999999999996;                    !- Visible Absorptance

OS:Material,
  {9f14864e-25e5-4f59-b721-b869255956ad}, !- Handle
  Roof Insulation [21],                   !- Name
  MediumRough,                            !- Roughness
  0.21049999999999999,                    !- Thickness {m}
  0.049000000000000002,                   !- Conductivity {W/m-K}
  265,                                    !- Density {kg/m3}
  836.8,                                  !- Specific Heat {J/kg-K}
  0.90000000000000002,                    !- Thermal Absorptance
  0.69999999999999996,                    !- Solar Absorptance
  0.69999999999999996;                    !- Visible Absorptance

OS:Material,
  {37f814f4-abd0-42f2-b88d-b90bcd0d1c39}, !- Handle
  Metal Decking,                          !- Name
  MediumSmooth,                           !- Roughness
  0.0015,                                 !- Thickness {m}
  45.006,                                 !- Conductivity {W/m-K}
  7680,                                   !- Density {kg/m3}
  418.4,                                  !- Specific Heat {J/kg-K}
  0.90000000000000002,                    !- Thermal Absorptance
  0.69999999999999996,                    !- Solar Absorptance
  0.29999999999999999;                    !- Visible Absorptance

OS:Material,
  {3b093ab4-4bcb-463d-8de8-f7fbb4f7d659}, !- Handle
  000_F16 Acoustic tile,                  !- Name
  MediumSmooth,                           !- Roughness
  0.019099999999999999,                   !- Thickness {m}
  0.059999999999999998,                   !- Conductivity {W/m-K}
  368,                                    !- Density {kg/m3}
  590;                                    !- Specific Heat {J/kg-K}

OS:Material:AirGap,
  {689b2022-1dc0-4470-bfc1-3f975c14f669}, !- Handle
  000_F05 Ceiling air space resistance,   !- Name
  0.17999999999999999;                    !- Thermal Resistance

OS:Material,
  {c5a6e79c-9f99-4eef-908b-b2d0e4117b67}, !- Handle
  000_M11 100mm lightweight concrete,     !- Name
  MediumRough,                            !- Roughness
  0.1016,                                 !- Thickness {m}
  0.53000000000000003,                    !- Conductivity {W/m-K}
  1280,                                   !- Density {kg/m3}
  840;                                    !- Specific Heat {J/kg-K}

OS:Material,
  {7273c3ad-7075-4a25-a286-fcf5ea59aee9}, !- Handle
  000_G01a 19mm gypsum board,             !- Name
  MediumSmooth,                           !- Roughness
  0.019,                                  !- Thickness {m}
  0.16,                                   !- Conductivity {W/m-K}
  800,                                    !- Density {kg/m3}
  1090;                                   !- Specific Heat {J/kg-K}

OS:Material:AirGap,
  {e8179111-2f09-4deb-9018-16259fb291c4}, !- Handle
  000_F04 Wall air space resistance,      !- Name
  0.14999999999999999;                    !- Thermal Resistance

OS:WindowMaterial:Glazing,
  {c2443ae5-e257-4a00-b78f-f36fdad97b84}, !- Handle