
OS:Version,
  {5be3566b-4c0c-4d7e-ab45-6f4ce084f6f6}, !- Handle
  2.9.0;                                  !- Version Identifier

OS:BuildingStory,
  {ec0cebd0-af80-4d04-bc4a-76e4f22edecb}, !- Handle
  Story 1,                                !- Name
  0,                                      !- Nominal Z Coordinate {m}
  4,                                      !- Nominal Floor to Floor Height {m}
  ,                                       !- Default Construction Set Name
  ,                                       !- Default Schedule Set Name
  ;                                       !- Group Rendering Name

OS:Space,
  {e610ee45-0c3b-4b78-96d9-1795b24ce64a}, !- Handle
  Story 1 Core Space,                     !- Name
  ,                                       !- Space Type Name
  ,                                       !- Default Construction Set Name
  ,                                       !- Default Schedule Set Name
  -0,                                     !- Direction of Relative North {deg}
  0,                                      !- X Origin {m}
  0,                                      !- Y Origin {m}
  0,                                      !- Z Origin {m}
  {ec0cebd0-af80-4d04-bc4a-76e4f22edecb}, !- Building Story Name
  {70a0ad23-bbd5-4e68-9320-8c843688772d}; !- Thermal Zone Name

OS:Surface,
  {95a4c46a-ace1-4152-b455-75144c0dda39}, !- Handle
  Surface 1,                              !- Name
  Floor,                                  !- Surface Type
  ,                                       !- Construction Name
  {e610ee45-0c3b-4b78-96d9-1795b24ce64a}, !- Space Name
  Ground,                                 !- Outside Boundary Condition
  ,                                       !- Outside Boundary Condition Object
  NoSun,                                  !- Sun Exposure
  NoWind,                                 !- Wind Exposure
  ,                                       !- View Factor to Ground
  ,                                       !- Number of Vertices
  0, 0, 0,                                !- X,Y,Z Vertex 1 {m}
  0, 50, 0,                               !- X,Y,Z Vertex 2 {m}
  100, 50, 0,                             !- X,Y,Z Vertex 3 {m}
  100, 0, 0;                              !- X,Y,Z Vertex 4 {m}

OS:Surface,
  {be030a0a-cfe5-4a14-8cd5-996dd6c4993d}, !- Handle
  Surface 2,                              !- Name
  Wall,                                   !- Surface Type
  ,                                       !- Construction Name
  {e610ee45-0c3b-4b78-96d9-1795b24ce64a}, !- Space Name
  Outdoors,                               !- Outside Boundary Condition
  ,                                       !- Outside Boundary Condition Object
  SunExposed,                             !- Sun Exposure
  WindExposed,                            !- Wind Exposure
  ,                                       !- View Factor to Ground
  ,                                       !- Number of Vertices
  0, 50, 4,                               !- X,Y,Z Vertex 1 {m}
  0, 50, 0,                               !- X,Y,Z Vertex 2 {m}
  0, 0, 0,                                !- X,Y,Z Vertex 3 {m}
  0, 0, 4;                                !- X,Y,Z Vertex 4 {m}

OS:Surface,
  {8d846285-38f7-4e44-bedc-ea45afb46ced}, !- Handle
  Surface 3,                              !- Name
  Wall,                                   !- Surface Type
  ,                                       !- Construction Name
  {e610ee45-0c3b-4b78-96d9-1795b24ce64a}, !- Space Name
  Outdoors,                               !- Outside Boundary Condition
  ,                                       !- Outside Boundary Condition Object
  SunExposed,                             !- Sun Exposure
  WindExposed,                            !- Wind Exposure
  ,                                       !- View Factor to Ground
  ,                                       !- Number of Vertices
  100, 50, 4,                             !- X,Y,Z Vertex 1 {m}
  100, 50, 0,                             !- X,Y,Z Vertex 2 {m}
  0, 50, 0,                               !- X,Y,Z Vertex 3 {m}
  0, 50, 4;                               !- X,Y,Z Vertex 4 {m}

OS:Surface,
  {2c79f6cd-c994-4233-ad34-d68b216235e2}, !- Handle
  Surface 4,                              !- Name
  Wall,                                   !- Surface Type
  ,                                       !- Construction Name
  {e610ee45-0c3b-4b78-96d9-1795b24ce64a}, !- Space Name
  Outdoors,                               !- Outside Boundary Condition
  ,                                       !- Outside Boundary Condition Object
  SunExposed,                             !- Sun Exposure
  WindExposed,                            !- Wind Exposure
  ,                                       !- View Factor to Ground
  ,                                       !- Number of Vertices
  100, 0, 4,                              !- X,Y,Z Vertex 1 {m}
  100, 0, 0,                              !- X,Y,Z Vertex 2 {m}
  100, 50, 0,                             !- X,Y,Z Vertex 3 {m}
  100, 50, 4;                             !- X,Y,Z Vertex 4 {m}

OS:Surface,
  {64c33af7-4042-46b3-a266-76781f57dc2e}, !- Handle
  Surface 5,                              !- Name
  Wall,                                   !- Surface Type
  ,                                       !- Construction Name
  {e610ee45-0c3b-4b78-96d9-1795b24ce64a}, !- Space Name
  Outdoors,                               !- Outside Boundary Condition
  ,                                       !- Outside Boundary Condition Object
  SunExposed,                             !- Sun Exposure
  WindExposed,                            !- Wind Exposure
  ,                                       !- View Factor to Ground
  ,                                       !- Number of Vertices
  0, 0, 4,                                !- X,Y,Z Vertex 1 {m}
  0, 0, 0,                                !- X,Y,Z Vertex 2 {m}
  100, 0, 0,                              !- X,Y,Z Vertex 3 {m}
  100, 0, 4;                              !- X,Y,Z Vertex 4 {m}

OS:Surface,
  {9a476b7c-9772-4ff0-940d-382a24c738e3}, !- Handle
  Surface 6,                              !- Name
  RoofCeiling,                            !- Surface Type
  ,                                       !- Construction Name
  {e610ee45-0c3b-4b78-96d9-1795b24ce64a}, !- Space Name
  Surface,                                !- Outside Boundary Condition
  {d58f1aff-f1a0-410b-86eb-c662b3253a42}, !- Outside Boundary Condition Object
  NoSun,                                  !- Sun Exposure
  NoWind,                                 !- Wind Exposure
  ,                                       !- View Factor to Ground
  ,                                       !- Number of Vertices
  100, 0, 4,                              !- X,Y,Z Vertex 1 {m}
  100, 50, 4,                             !- X,Y,Z Vertex 2 {m}
  0, 50, 4,                               !- X,Y,Z Vertex 3 {m}
  0, 0, 4;                                !- X,Y,Z Vertex 4 {m}

OS:BuildingStory,
  {32e76243-bb8a-49c8-a4a5-a0b91ce00ac9}, !- Handle
  Story 2,                                !- Name
  4,                                      !- Nominal Z Coordinate {m}
  4,                                      !- Nominal Floor to Floor Height {m}
  ,                                       !- Default Construction Set Name
  ,                                       !- Default Schedule Set Name
  ;                                       !- Group Rendering Name

OS:Space,
  {463339da-6abc-4404-806c-a958ef2820cc}, !- Handle
  Story 2 Core Space,                     !- Name
  ,                                       !- Space Type Name
  ,                                       !- Default Construction Set Name
  ,                                       !- Default Schedule Set Name
  -0,                                     !- Direction of Relative North {deg}
  0,                                      !- X Origin {m}
  0,                                      !- Y Origin {m}
  4,                                      !- Z Origin {m}
  {32e76243-bb8a-49c8-a4a5-a0b91ce00ac9}, !- Building Story Name
  {843d8c40-cb44-49de-835d-9ea4202fe4c4}; !- Thermal Zone Name

OS:Surface,
  {d58f1aff-f1a0-410b-86eb-c662b3253a42}, !- Handle
  Surface 7,                              !- Name
  Floor,                                  !- Surface Type
  ,                                       !- Construction Name
  {463339da-6abc-4404-806c-a958ef2820cc}, !- Space Name
  Surface,                                !- Outside Boundary Condition
  {9a476b7c-9772-4ff0-940d-382a24c738e3}, !- Outside Boundary Condition Object
  NoSun,                                  !- Sun Exposure
  NoWind,                                 !- Wind Exposure
  ,                                       !- View Factor to Ground
  ,                                       !- Number of Vertices
  0, 0, 0,                                !- X,Y,Z Vertex 1 {m}
  0, 50, 0,                               !- X,Y,Z Vertex 2 {m}
  100, 50, 0,                             !- X,Y,Z Vertex 3 {m}
  100, 0, 0;                              !- X,Y,Z Vertex 4 {m}

OS:Surface,
  {5e85ec51-4b08-4432-9bf3-482907ca4bc6}, !- Handle
  Surface 8,                              !- Name
  Wall,                                   !- Surface Type
  ,                                       !- Construction Name
  {463339da-6abc-4404-806c-a958ef2820cc}, !- Space Name
  Outdoors,                               !- Outside Boundary Condition
  ,                                       !- Outside Boundary Condition Object
  SunExposed,                             !- Sun Exposure
  WindExposed,                            !- Wind Exposure
  ,                                       !- View Factor to Ground
  ,                                       !- Number of Vertices
  0, 50, 4,                               !- X,Y,Z Vertex 1 {m}
  0, 50, 0,                               !- X,Y,Z Vertex 2 {m}
  0, 0, 0,                                !- X,Y,Z Vertex 3 {m}
  0, 0, 4;                                !- X,Y,Z Vertex 4 {m}

OS:Surface,
  {1923036e-33d4-40af-98c8-741b997d765f}, !- Handle
  Surface 9,                              !- Name
  Wall,                                   !- Surface Type
  ,                                       !- Construction Name
  {463339da-6abc-4404-806c-a958ef2820cc}, !- Space Name
  Outdoors,                               !- Outside Boundary Condition
  ,                                       !- Outside Boundary Condition Object
  SunExposed,                             !- Sun Exposure
  WindExposed,                            !- Wind Exposure
  ,                                       !- View Factor to Ground
  ,                                       !- Number of Vertices
  100, 50, 4,                             !- X,Y,Z Vertex 1 {m}
  100, 50, 0,                             !- X,Y,Z Vertex 2 {m}
  0, 50, 0,                               !- X,Y,Z Vertex 3 {m}
  0, 50, 4;                               !- X,Y,Z Vertex 4 {m}

OS:Surface,
  {62dee127-3703-4cca-b3ff-478fd5389869}, !- Handle
  Surface 10,                             !- Name
  Wall,                                   !- Surface Type
  ,                                       !- Construction Name
  {463339da-6abc-4404-806c-a958ef2820cc}, !- Space Name
  Outdoors,                               !- Outside Boundary Condition
  ,                                       !- Outside Boundary Condition Object
  SunExposed,                             !- Sun Exposure
  WindExposed,                            !- Wind Exposure
  ,                                       !- View Factor to Ground
  ,                                       !- Number of Vertices
  100, 0, 4,                              !- X,Y,Z Vertex 1 {m}
  100, 0, 0,                              !- X,Y,Z Vertex 2 {m}
  100, 50, 0,                             !- X,Y,Z Vertex 3 {m}
  100, 50, 4;                             !- X,Y,Z Vertex 4 {m}

OS:Surface,
  {8855eebb-d85f-4b32-b0aa-910318d10d16}, !- Handle
  Surface 11,                             !- Name
  Wall,                                   !- Surface Type
  ,                                       !- Construction Name
  {463339da-6abc-4404-806c-a958ef2820cc}, !- Space Name
  Outdoors,                               !- Outside Boundary Condition
  ,                                       !- Outside Boundary Condition Object
  SunExposed,                             !- Sun Exposure
  WindExposed,                            !- Wind Exposure
  ,                                       !- View Factor to Ground
  ,                                       !- Number of Vertices
  0, 0, 4,                                !- X,Y,Z Vertex 1 {m}
  0, 0, 0,                                !- X,Y,Z Vertex 2 {m}
  100, 0, 0,                              !- X,Y,Z Vertex 3 {m}
  100, 0, 4;                              !- X,Y,Z Vertex 4 {m}

OS:Surface,
  {dff4689e-5ce8-4184-88b0-f447347a8ead}, !- Handle
  Surface 12,                             !- Name
  RoofCeiling,                            !- Surface Type
  ,                                       !- Construction Name
  {463339da-6abc-4404-806c-a958ef2820cc}, !- Space Name
  Outdoors,                               !- Outside Boundary Condition
  ,                                       !- Outside Boundary Condition Object
  SunExposed,                             !- Sun Exposure
  WindExposed,                            !- Wind Exposure
  ,                                       !- View Factor to Ground
  ,                                       !- Number of Vertices
  100, 0, 4,                              !- X,Y,Z Vertex 1 {m}
  100, 50, 4,                             !- X,Y,Z Vertex 2 {m}
  0, 50, 4,                               !- X,Y,Z Vertex 3 {m}
  0, 0, 4;                                !- X,Y,Z Vertex 4 {m}

OS:ThermalZone,
  {70a0ad23-bbd5-4e68-9320-8c843688772d}, !- Handle
  Story 1 Core Thermal Zone,              !- Name
  ,                                       !- Multiplier
  ,                                       !- Ceiling Height {m}
  ,                                       !- Volume {m3}
  ,                                       !- Floor Area {m2}
  ,                                       !- Zone Inside Convection Algorithm
  ,                                       !- Zone Outside Convection Algorithm
  ,                                       !- Zone Conditioning Equipment List Name
  {ace47283-ed76-43ef-8bdf-ae34d588f52b}, !- Zone Air Inlet Port List
  {ad9fbb08-caa0-4729-9098-1427db62a007}, !- Zone Air Exhaust Port List
  {0e683bf2-5844-435e-aeab-0aa35ec393d2}, !- Zone Air Node Name
  {6ed6f6bb-91c2-4fc4-811d-60162934fcbc}, !- Zone Return Air Port List
  ,                                       !- Primary Daylighting Control Name
  ,                                       !- Fraction of Zone Controlled by Primary Daylighting Control
  ,                                       !- Secondary Daylighting Control Name
  ,                                       !- Fraction of Zone Controlled by Secondary Daylighting Control
  ,                                       !- Illuminance Map Name
  ,                                       !- Group Rendering Name
  {ab2cf503-db04-4130-bbdb-46f75c42c38f}, !- Thermostat Name
  No;                                     !- Use Ideal Air Loads

OS:Node,
  {169cd3b5-9425-466c-b168-09d581aab036}, !- Handle
  Node 1,                                 !- Name
  {0e683bf2-5844-435e-aeab-0aa35ec393d2}, !- Inlet Port
  ;                                       !- Outlet Port

OS:Connection,
  {0e683bf2-5844-435e-aeab-0aa35ec393d2}, !- Handle
  {b49256f5-111b-4eb9-845d-29c859a7bf26}, !- Name
  {70a0ad23-bbd5-4e68-9320-8c843688772d}, !- Source Object
  11,                                     !- Outlet Port
  {169cd3b5-9425-466c-b168-09d581aab036}, !- Target Object
  2;                                      !- Inlet Port

OS:PortList,
  {ace47283-ed76-43ef-8bdf-ae34d588f52b}, !- Handle
  {1a1dc94f-4c4c-4483-b36d-d0c08f34484a}, !- Name
  {70a0ad23-bbd5-4e68-9320-8c843688772d}, !- HVAC Component
  {e052f8f7-1602-4971-9e16-4d8e318d6f11}; !- Port 1

OS:PortList,
  {ad9fbb08-caa0-4729-9098-1427db62a007}, !- Handle
  {d8d2754a-546c-4c29-a464-69cea006829d}, !- Name
  {70a0ad23-bbd5-4e68-9320-8c843688772d}; !- HVAC Component

OS:PortList,
  {6ed6f6bb-91c2-4fc4-811d-60162934fcbc}, !- Handle
  {e8c0146a-168d-40a6-b689-827d301b945a}, !- Name
  {70a0ad23-bbd5-4e68-9320-8c843688772d}, !- HVAC Component
  {2991be40-8d36-4481-902c-793882f5eb5d}; !- Port 1

OS:Sizing:Zone,
  {bd850745-1067-4db0-bd6d-1ee16ae240f3}, !- Handle
  {70a0ad23-bbd5-4e68-9320-8c843688772d}, !- Zone or ZoneList Name
  SupplyAirTemperature,                   !- Zone Cooling Design Supply Air Temperature Input Method
  14,                                     !- Zone Cooling Design Supply Air Temperature {C}
  11.11,                                  !- Zone Cooling Design Supply Air Temperature Difference {deltaC}
  SupplyAirTemperature,                   !- Zone Heating Design Supply Air Temperature Input Method
  40,                                     !- Zone Heating Design Supply Air Temperature {C}
  11.11,                                  !- Zone Heating Design Supply Air Temperature Difference {deltaC}
  0.0085,                                 !- Zone Cooling Design Supply Air Humidity Ratio {kg-H2O/kg-air}
  0.008,                                  !- Zone Heating Design Supply Air Humidity Ratio {kg-H2O/kg-air}
  ,                                       !- Zone Heating Sizing Factor
  ,                                       !- Zone Cooling Sizing Factor
  DesignDay,                              !- Cooling Design Air Flow Method
  ,                                       !- Cooling Design Air Flow Rate {m3/s}
  ,                                       !- Cooling Minimum Air Flow per Zone Floor Area {m3/s-m2}
  ,                                       !- Cooling Minimum Air Flow {m3/s}
  ,                                       !- Cooling Minimum Air Flow Fraction
  DesignDay,                              !- Heating Design Air Flow Method
  ,                                       !- Heating Design Air Flow Rate {m3/s}
  ,                                       !- Heating Maximum Air Flow per Zone Floor Area {m3/s-m2}
  ,                                       !- Heating Maximum Air Flow {m3/s}
  ,                                       !- Heating Maximum Air Flow Fraction
  ,                                       !- Design Zone Air Distribution Effectiveness in Cooling Mode
  ,                                       !- Design Zone Air Distribution Effectiveness in Heating Mode
  No,                                     !- Account for Dedicated Outdoor Air System
  NeutralSupplyAir,                       !- Dedicated Outdoor Air System Control Strategy
  autosize,                               !- Dedicated Outdoor Air Low Setpoint Temperature for Design {C}
  autosize;                               !- Dedicated Outdoor Air High Setpoint Temperature for Design {C}

OS:ZoneHVAC:EquipmentList,
  {aa68302d-db07-419f-a7e8-888c1c5077c3}, !- Handle
  Zone HVAC Equipment List 1,             !- Name
  {70a0ad23-bbd5-4e68-9320-8c843688772d}, !- Thermal Zone
  ,                                       !- Load Distribution Scheme
  {9a2729fc-526c-4585-99b6-fa7c5537adc9}, !- Zone Equipment 1
  1,                                      !- Zone Equipment Cooling Sequence 1
  1,                                      !- Zone Equipment Heating or No-Load Sequence 1
  ,                                       !- Zone Equipment Sequential Cooling Fraction Schedule Name 1
  {b959ae61-aa4a-4110-a604-939a5a24402e}; !- Zone Equipment Sequential Heating Fraction Schedule Name 1

OS:ThermalZone,
  {843d8c40-cb44-49de-835d-9ea4202fe4c4}, !- Handle
  Story 2 Core Thermal Zone,              !- Name
  ,                                       !- Multiplier
  ,                                       !- Ceiling Height {m}
  ,                                       !- Volume {m3}
  ,                                       !- Floor Area {m2}
  ,                                       !- Zone Inside Convection Algorithm
  ,                                       !- Zone Outside Convection Algorithm
  ,                                       !- Zone Conditioning Equipment List Name
  {c36f6986-1828-4844-ae6d-b358141ece33}, !- Zone Air Inlet Port List
  {d05c99a7-f3dd-4e36-a41f-3a719d0a5de1}, !- Zone Air Exhaust Port List
  {4aff3ecb-a285-4b2c-ac3c-340bb53109c8}, !- Zone Air Node Name
  {2c2c89ba-305d-483d-ba07-5d5bf286c44d}, !- Zone Return Air Port List
  ,                                       !- Primary Daylighting Control Name
  ,                                       !- Fraction of Zone Controlled by Primary Daylighting Control
  ,                                       !- Secondary Daylighting Control Name
  ,                                       !- Fraction of Zone Controlled by Secondary Daylighting Control
  ,                                       !- Illuminance Map Name
  ,                                       !- Group Rendering Name
  {25f8c776-806b-4916-8597-9f1b11248217}, !- Thermostat Name
  No;                                     !- Use Ideal Air Loads

OS:Node,
  {10a8991a-39c0-4bb6-8cae-e1dba16fcb4a}, !- Handle
  Node 2,                                 !- Name
  {4aff3ecb-a285-4b2c-ac3c-340bb53109c8}, !- Inlet Port
  ;                                       !- Outlet Port

OS:Connection,
  {4aff3ecb-a285-4b2c-ac3c-340bb53109c8}, !- Handle
  {8df55e44-669d-49c0-a9a0-5e0b289df8ac}, !- Name
  {843d8c40-cb44-49de-835d-9ea4202fe4c4}, !- Source Object
  11,                                     !- Outlet Port
  {10a8991a-39c0-4bb6-8cae-e1dba16fcb4a}, !- Target Object
  2;                                      !- Inlet Port

OS:PortList,
  {c36f6986-1828-4844-ae6d-b358141ece33}, !- Handle
  {628dd344-8ea7-4692-817c-7c44e4859c6e}, !- Name
  {843d8c40-cb44-49de-835d-9ea4202fe4c4}, !- HVAC Component
  {d6c28cb5-61d6-4ef5-948e-a49f26a8ec7b}; !- Port 1

OS:PortList,
  {d05c99a7-f3dd-4e36-a41f-3a719d0a5de1}, !- Handle
  {e2a06c36-d0ee-4030-ab8c-98febe86d90e}, !- Name
  {843d8c40-cb44-49de-835d-9ea4202fe4c4}; !- HVAC Component

OS:PortList,
  {2c2c89ba-305d-483d-ba07-5d5bf286c44d}, !- Handle
  {e61f6308-1390-4aff-9734-8d69c36f6ce5}, !- Name
  {843d8c40-cb44-49de-835d-9ea4202fe4c4}, !- HVAC Component
  {b30bb412-963d-4b6d-9cba-14b9da715266}; !- Port 1

OS:Sizing:Zone,
  {3773074b-4dcf-4e59-be1c-3d42c478d264}, !- Handle
  {843d8c40-cb44-49de-835d-9ea4202fe4c4}, !- Zone or ZoneList Name
  SupplyAirTemperature,                   !- Zone Cooling Design Supply Air Temperature Input Method
  14,                                     !- Zone Cooling Design Supply Air Temperature {C}
  11.11,                                  !- Zone Cooling Design Supply Air Temperature Difference {deltaC}
  SupplyAirTemperature,                   !- Zone Heating Design Supply Air Temperature Input Method
  40,                                     !- Zone Heating Design Supply Air Temperature {C}
  11.11,                                  !- Zone Heating Design Supply Air Temperature Difference {deltaC}
  0.0085,                                 !- Zone Cooling Design Supply Air Humidity Ratio {kg-H2O/kg-air}
  0.008,                                  !- Zone Heating Design Supply Air Humidity Ratio {kg-H2O/kg-air}
  ,                                       !- Zone Heating Sizing Factor
  ,                                       !- Zone Cooling Sizing Factor
  DesignDay,                              !- Cooling Design Air Flow Method
  ,                                       !- Cooling Design Air Flow Rate {m3/s}
  ,                                       !- Cooling Minimum Air Flow per Zone Floor Area {m3/s-m2}
  ,                                       !- Cooling Minimum Air Flow {m3/s}
  ,                                       !- Cooling Minimum Air Flow Fraction
  DesignDay,                              !- Heating Design Air Flow Method
  ,                                       !- Heating Design Air Flow Rate {m3/s}
  ,                                       !- Heating Maximum Air Flow per Zone Floor Area {m3/s-m2}
  ,                                       !- Heating Maximum Air Flow {m3/s}
  ,                                       !- Heating Maximum Air Flow Fraction
  ,                                       !- Design Zone Air Distribution Effectiveness in Cooling Mode
  ,                                       !- Design Zone Air Distribution Effectiveness in Heating Mode
  No,                                     !- Account for Dedicated Outdoor Air System
  NeutralSupplyAir,                       !- Dedicated Outdoor Air System Control Strategy
  autosize,                               !- Dedicated Outdoor Air Low Setpoint Temperature for Design {C}
  autosize;                               !- Dedicated Outdoor Air High Setpoint Temperature for Design {C}

OS:ZoneHVAC:EquipmentList,
  {6fde53d9-dd01-42ac-a00b-f3dd0a442e12}, !- Handle
  Zone HVAC Equipment List 2,             !- Name
  {843d8c40-cb44-49de-835d-9ea4202fe4c4}, !- Thermal Zone
  ,                                       !- Load Distribution Scheme
  {5aaff84b-62ae-470e-b44d-f32866b093b9}, !- Zone Equipment 1
  1,                                      !- Zone Equipment Cooling Sequence 1
  1,                                      !- Zone Equipment Heating or No-Load Sequence 1
  ,                                       !- Zone Equipment Sequential Cooling Fraction Schedule Name 1
  {84067622-d687-4b89-afdd-2fdb0785dead}; !- Zone Equipment Sequential Heating Fraction Schedule Name 1

OS:SubSurface,
  {f54bab38-a727-46df-a56c-6334461e1f2a}, !- Handle
  Sub Surface 1,                          !- Name
  FixedWindow,                            !- Sub Surface Type
  ,                                       !- Construction Name
  {8855eebb-d85f-4b32-b0aa-910318d10d16}, !- Surface Name
  ,                                       !- Outside Boundary Condition Object
  ,                                       !- View Factor to Ground
  ,                                       !- Shading Control Name
  ,                                       !- Frame and Divider Name
  ,                                       !- Multiplier
  ,                                       !- Number of Vertices
  0.0254, 0, 2.60081321311226,            !- X,Y,Z Vertex 1 {m}
  0.0254, 0, 1,                           !- X,Y,Z Vertex 2 {m}
  99.9746, 0, 1,                          !- X,Y,Z Vertex 3 {m}
  99.9746, 0, 2.60081321311226;           !- X,Y,Z Vertex 4 {m}

OS:SubSurface,
  {b17e6d01-7ff9-4540-a152-875c4d29ecc1}, !- Handle
  Sub Surface 2,                          !- Name
  FixedWindow,                            !- Sub Surface Type
  ,                                       !- Construction Name
  {5e85ec51-4b08-4432-9bf3-482907ca4bc6}, !- Surface Name
  ,                                       !- Outside Boundary Condition Object
  ,                                       !- View Factor to Ground
  ,                                       !- Shading Control Name
  ,                                       !- Frame and Divider Name
  ,                                       !- Multiplier
  ,                                       !- Number of Vertices
  0, 49.9746, 2.60162725328934,           !- X,Y,Z Vertex 1 {m}
  0, 49.9746, 1,                          !- X,Y,Z Vertex 2 {m}
  0, 0.0254000000000048, 1,               !- X,Y,Z Vertex 3 {m}
  0, 0.0254000000000048, 2.60162725328934; !- X,Y,Z Vertex 4 {m}

OS:SubSurface,
  {21e1af65-3bd5-4ebb-9547-aa7aa9132be3}, !- Handle
  Sub Surface 3,                          !- Name
  FixedWindow,                            !- Sub Surface Type
  ,                                       !- Construction Name
  {1923036e-33d4-40af-98c8-741b997d765f}, !- Surface Name
  ,                                       !- Outside Boundary Condition Object
  ,                                       !- View Factor to Ground
  ,                                       !- Shading Control Name
  ,                                       !- Frame and Divider Name
  ,                                       !- Multiplier
  ,                                       !- Number of Vertices
  99.9746, 50, 2.60081321311226,          !- X,Y,Z Vertex 1 {m}
  99.9746, 50, 1,                         !- X,Y,Z Vertex 2 {m}
  0.0253999999999905, 50, 1,              !- X,Y,Z Vertex 3 {m}
  0.0253999999999905, 50, 2.60081321311226; !- X,Y,Z Vertex 4 {m}

OS:SubSurface,
  {9c3305bb-6556-491e-900d-ea9894a0efc1}, !- Handle
  Sub Surface 4,                          !- Name
  FixedWindow,                            !- Sub Surface Type
  ,                                       !- Construction Name
  {be030a0a-cfe5-4a14-8cd5-996dd6c4993d}, !- Surface Name
  ,                                       !- Outside Boundary Condition Object
  ,                                       !- View Factor to Ground
  ,                                       !- Shading Control Name
  ,                                       !- Frame and Divider Name
  ,                                       !- Multiplier
  ,                                       !- Number of Vertices
  0, 49.9746, 2.60162725328934,           !- X,Y,Z Vertex 1 {m}
  0, 49.9746, 1,                          !- X,Y,Z Vertex 2 {m}
  0, 0.0254000000000048, 1,               !- X,Y,Z Vertex 3 {m}
  0, 0.0254000000000048, 2.60162725328934; !- X,Y,Z Vertex 4 {m}

OS:SubSurface,
  {04e084ef-f663-44f7-b165-905a55f5d54b}, !- Handle
  Sub Surface 5,                          !- Name
  FixedWindow,                            !- Sub Surface Type
  ,                                       !- Construction Name
  {62dee127-3703-4cca-b3ff-478fd5389869}, !- Surface Name
  ,                                       !- Outside Boundary Condition Object
  ,                                       !- View Factor to Ground