
OS:Version,
  {c58287a4-2ff2-4aa0-8358-ff844be10b57}, !- Handle
  1.0.6;                                  !- Version Identifier

OS:Schedule:Ruleset,
  {36fb6612-9b5d-48c0-b5ff-b2f3c63c5f24}, !- Handle
  Always_On,                              !- Name
  ,                                       !- Schedule Type Limits Name
  {73bd5c0b-b109-46da-9576-4aabce70c68c}, !- Default Day Schedule Name
  {3f03945b-b820-4968-b1d6-b6733472b4ec}, !- Summer Design Day Schedule Name
  {cd3b6a5f-8813-4c81-a52a-d84a2bc26bb1}; !- Winter Design Day Schedule Name

OS:Schedule:Day,
  {73bd5c0b-b109-46da-9576-4aabce70c68c}, !- Handle
  Always_On_Default,                      !- Name
  ,                                       !- Schedule Type Limits Name
  ,                                       !- Interpolate to Timestep
  24,                                     !- Hour 1
  0,                                      !- Minute 1
  1;                                      !- Value Until Time 1

OS:Schedule:Day,
  {4409ed99-3bd3-465d-9854-8ededf1b2411}, !- Handle
  Schedule Day 2,                         !- Name
  ,                                       !- Schedule Type Limits Name
  ,                                       !- Interpolate to Timestep
  24,                                     !- Hour 1
  0,                                      !- Minute 1
  0;                                      !- Value Until Time 1

OS:Schedule:Day,
  {cd3b6a5f-8813-4c81-a52a-d84a2bc26bb1}, !- Handle
  Always_On_Winter_Design_Day,            !- Name
  ,                                       !- Schedule Type Limits Name
  ,                                       !- Interpolate to Timestep
  24,                                     !- Hour 1
  0,                                      !- Minute 1
  1;                                      !- Value Until Time 1

OS:Schedule:Day,
  {8a44c31a-a1d7-40be-b49f-c19561b67b70}, !- Handle
  Schedule Day 3,                         !- Name
  ,                                       !- Schedule Type Limits Name
  ,                                       !- Interpolate to Timestep
  24,                                     !- Hour 1
  0,                                      !- Minute 1
  0;                                      !- Value Until Time 1

OS:Schedule:Day,
  {3f03945b-b820-4968-b1d6-b6733472b4ec}, !- Handle
  Always_On_Summer_Design_Day,            !- Name
  ,                                       !- Schedule Type Limits Name
  ,                                       !- Interpolate to Timestep
  24,                                     !- Hour 1
  0,                                      !- Minute 1
  1;                                      !- Value Until Time 1

OS:Schedule:Ruleset,
  {bf5afd09-a3e1-4c37-908c-a2916d07ed13}, !- Handle
  Always_Off,                             !- Name
  ,                                       !- Schedule Type Limits Name
  {b5ab8069-e2bd-4b3e-8fb2-3fe045a498b5}, !- Default Day Schedule Name
  {363456af-1d82-482d-b2dd-faff7713d8f9}, !- Summer Design Day Schedule Name
  {7686befe-8307-4e9d-b563-e8ebeb91cdc4}; !- Winter Design Day Schedule Name

OS:Schedule:Day,
  {b5ab8069-e2bd-4b3e-8fb2-3fe045a498b5}, !- Handle
  Always_Off_Default,                     !- Name
  ,                                       !- Schedule Type Limits Name
  ,                                       !- Interpolate to Timestep
  24,                                     !- Hour 1
  0,                                      !- Minute 1
  0;                                      !- Value Until Time 1

OS:Schedule:Day,
  {dadcf6b8-a69f-4e58-855c-1b8e5a3f0cef}, !- Handle
  Schedule Day 4,                         !- Name
  ,                                       !- Schedule Type Limits Name
  ,                                       !- Interpolate to Timestep
  24,                                     !- Hour 1
  0,                                      !- Minute 1
  0;                                      !- Value Until Time 1

OS:Schedule:Day,
  {7686befe-8307-4e9d-b563-e8ebeb91cdc4}, !- Handle
  Always_Off_Winter_Design_Day,           !- Name
  ,                                       !- Schedule Type Limits Name
  ,                                       !- Interpolate to Timestep
  24,                                     !- Hour 1
  0,                                      !- Minute 1
  0;                                      !- Value Until Time 1

OS:Schedule:Day,
  {3b92c97b-cc3c-4fdd-82c9-b7163a7aba5e}, !- Handle
  Schedule Day 5,                         !- Name
  ,                                       !- Schedule Type Limits Name
  ,                                       !- Interpolate to Timestep
  24,                                     !- Hour 1
  0,                                      !- Minute 1
  0;                                      !- Value Until Time 1

OS:Schedule:Day,
  {363456af-1d82-482d-b2dd-faff7713d8f9}, !- Handle
  Always_Off_Summer_Design_Day,           !- Name
  ,                                       !- Schedule Type Limits Name
  ,                                       !- Interpolate to Timestep
  24,                                     !- Hour 1
  0,                                      !- Minute 1
  0;                                      !- Value Until Time 1

OS:Schedule:Ruleset,
  {8dcc939b-eb29-454d-a748-2567e25dc009}, !- Handle
  Deck_Temperature,                       !- Name
  ,                                       !- Schedule Type Limits Name
  {982865f0-e7ae-417c-9a6f-9ecd166e5b28}, !- Default Day Schedule Name
  {0cf85118-7b39-400d-8f96-f7a71d01d943}, !- Summer Design Day Schedule Name
  {6095c8df-723a-46d8-9e73-9d4a1e51e20b}; !- Winter Design Day Schedule Name

OS:Schedule:Day,
  {982865f0-e7ae-417c-9a6f-9ecd166e5b28}, !- Handle
  Deck_Temperature_Default,               !- Name
  ,                                       !- Schedule Type Limits Name
  ,                                       !- Interpolate to Timestep
  24,                                     !- Hour 1
  0,                                      !- Minute 1
  12.8;                                   !- Value Until Time 1

OS:Schedule:Day,
  {4a9f8d19-aa34-4844-b0f6-17b89da91033}, !- Handle
  Schedule Day 6,                         !- Name
  ,                                       !- Schedule Type Limits Name
  ,                                       !- Interpolate to Timestep
  24,                                     !- Hour 1
  0,                                      !- Minute 1
  0;                                      !- Value Until Time 1

OS:Schedule:Day,
  {6095c8df-723a-46d8-9e73-9d4a1e51e20b}, !- Handle
  Deck_Temperature_Winter_Design_Day,     !- Name
  ,                                       !- Schedule Type Limits Name
  ,                                       !- Interpolate to Timestep
  24,                                     !- Hour 1
  0,                                      !- Minute 1
  12.8;                                   !- Value Until Time 1

OS:Schedule:Day,
  {2aba3852-19c6-41ff-a42a-9c96e16e90cf}, !- Handle
  Schedule Day 7,                         !- Name
  ,                                       !- Schedule Type Limits Name
  ,                                       !- Interpolate to Timestep
  24,                                     !- Hour 1
  0,                                      !- Minute 1
  0;                                      !- Value Until Time 1

OS:Schedule:Day,
  {0cf85118-7b39-400d-8f96-f7a71d01d943}, !- Handle
  Deck_Temperature_Summer_Design_Day,     !- Name
  ,                                       !- Schedule Type Limits Name
  ,                                       !- Interpolate to Timestep
  24,                                     !- Hour 1
  0,                                      !- Minute 1
  12.8;                                   !- Value Until Time 1

OS:Construction,
  {ad46da6e-7268-47e4-86b6-97f59333d0d8}, !- Handle
  INT-FLOOR-TOPSIDE,                      !- Name
  ,                                       !- Surface Rendering Name
  {45c5f60b-e571-4df0-b957-ac1c23471853}, !- Layer 1
  {662b6af1-1a4a-4123-b2d1-81b7da8f0679}, !- Layer 2
  {0db3e0ed-0ab0-4a3c-8bdc-519933b3c363}; !- Layer 3

OS:Material,
  {45c5f60b-e571-4df0-b957-ac1c23471853}, !- Handle
  1/2IN Gypsum,                           !- Name
  Smooth,                                 !- Roughness
  0.0127,                                 !- Thickness {m}
  0.1600,                                 !- Conductivity {W/m-K}
  784.9000,                               !- Density {kg/m3}
  830.0000,                               !- Specific Heat {J/kg-K}
  0.9000,                                 !- Thermal Absorptance
  0.9200,                                 !- Solar Absorptance
  0.9200;                                 !- Visible Absorptance

OS:Material,
  {662b6af1-1a4a-4123-b2d1-81b7da8f0679}, !- Handle
  4IN CONCRETE HW,                        !- Name
  Rough,                                  !- Roughness
  0.1016,                                 !- Thickness {m}
  1.3110,                                 !- Conductivity {W/m-K}
  2240.0000,                              !- Density {kg/m3}
  836.8000,                               !- Specific Heat {J/kg-K}
  0.9000,                                 !- Thermal Absorptance
  0.7000,                                 !- Solar Absorptance
  0.7000;                                 !- Visible Absorptance

OS:Material:NoMass,
  {0db3e0ed-0ab0-4a3c-8bdc-519933b3c363}, !- Handle
  CP02 CARPET PAD,                        !- Name
  VeryRough,                              !- Roughness
  0.2165,                                 !- Thermal Resistance {m2-K/W}
  0.9000,                                 !- Thermal Absorptance
  0.7000,                                 !- Solar Absorptance
  0.8000;                                 !- Visible Absorptance

OS:StandardsInformation:Construction,
  {309d7c0d-44c4-49a6-8a15-7e2a4943b7b8}, !- Handle
  {ad46da6e-7268-47e4-86b6-97f59333d0d8}, ! Construction Name
  ,                                       ! Intended Surface Type
  Mass,                                   ! Construction Type
  0,                                      ! Perturbable Layer
  Insulation,                             ! Perturbable Layer Type
  ;                                       ! Other Perturbable Layer Type

OS:Construction,
  {076ba73b-800c-4d1f-83c7-3d89931c738d}, !- Handle
  INT-FLOOR-UNDERSIDE,                    !- Name
  ,                                       !- Surface Rendering Name
  {0db3e0ed-0ab0-4a3c-8bdc-519933b3c363}, !- Layer 1
  {662b6af1-1a4a-4123-b2d1-81b7da8f0679}, !- Layer 2
  {45c5f60b-e571-4df0-b957-ac1c23471853}; !- Layer 3

OS:StandardsInformation:Construction,
  {14e586df-3829-4d7e-bdd7-b46710b4ecb4}, !- Handle
  {076ba73b-800c-4d1f-83c7-3d89931c738d}, ! Construction Name
  ,                                       ! Intended Surface Type
  Mass,                                   ! Construction Type
  1,                                      ! Perturbable Layer
  Insulation,                             ! Perturbable Layer Type
  ;                                       ! Other Perturbable Layer Type

OS:Construction,
  {f1ce1d86-a2bf-4b9c-9942-c9593bcc8008}, !- Handle
  Standard_Int-Wall,                      !- Name
  ,                                       !- Surface Rendering Name
  {45c5f60b-e571-4df0-b957-ac1c23471853}, !- Layer 1
  {45c5f60b-e571-4df0-b957-ac1c23471853}; !- Layer 2

OS:StandardsInformation:Construction,
  {4ed3668f-9145-4692-b9cf-2ec204475b75}, !- Handle
  {f1ce1d86-a2bf-4b9c-9942-c9593bcc8008}, ! Construction Name
  ,                                       ! Intended Surface Type
  Mass,                                   ! Construction Type
  0,                                      ! Perturbable Layer
  Insulation,                             ! Perturbable Layer Type
  ;                                       ! Other Perturbable Layer Type

OS:DefaultSurfaceConstructions,
  {ccd6a876-3c34-4e3b-915a-70fbb9ca3b28}, !- Handle
  Default Surface Constructions 1,        !- Name
  {ad46da6e-7268-47e4-86b6-97f59333d0d8}, !- Floor Construction Name
  {f1ce1d86-a2bf-4b9c-9942-c9593bcc8008}, !- Wall Construction Name
  {076ba73b-800c-4d1f-83c7-3d89931c738d}; !- Roof Ceiling Construction Name

OS:DefaultConstructionSet,
  {98a6b41f-2501-47b4-a5b4-e01c38988797}, !- Handle
  Default Construction Set 1,             !- Name
  ,                                       !- Default Exterior Surface Constructions Name
  {ccd6a876-3c34-4e3b-915a-70fbb9ca3b28}, !- Default Interior Surface Constructions Name
  ,                                       !- Default Ground Contact Surface Constructions Name
  ,                                       !- Default Exterior SubSurface Constructions Name
  ,                                       !- Default Interior SubSurface Constructions Name
  ,                                       !- Interior Partition Construction Name
  ,                                       !- Space Shading Construction Name
  ,                                       !- Building Shading Construction Name
  ;                                       !- Site Shading Construction Name

OS:Building,
  {231bbf67-462b-4740-be62-e6aa45120080}, !- Handle
  Building 1,                             !- Name
  ,                                       !- Building Type
  ,                                       !- North Axis {deg}
  ,                                       !- Nominal Floor to Floor Height {m}
  ,                                       !- Space Type Name
  {98a6b41f-2501-47b4-a5b4-e01c38988797}, !- Default Construction Set Name
  ;                                       !- Default Schedule Set Name

! Wall from DOE reference building new warehouse
OS:Construction,
  {6125cf68-56fa-42fe-8473-beb54ac47afe}, !- Handle
  Metal_Building_Wall,                    !- Name
  ,                                       !- Surface Rendering Name
  {b3f95be3-0d03-4d54-879c-16d2b0073187}, !- Layer 1
  {90784f1b-8fef-447e-8a43-e8c80b7b7375}, !- Layer 2
  {45c5f60b-e571-4df0-b957-ac1c23471853}; !- Layer 3

OS:Material,
  {b3f95be3-0d03-4d54-879c-16d2b0073187}, !- Handle
  Metal Siding,                           !- Name
  Smooth,                                 !- Roughness
  0.0015,                                 !- Thickness {m}
  44.9600,                                !- Conductivity {W/m-K}
  7688.8600,                              !- Density {kg/m3}
  410.0000,                               !- Specific Heat {J/kg-K}
  0.9000,                                 !- Thermal Absorptance
  0.2000,                                 !- Solar Absorptance
  0.2000;                                 !- Visible Absorptance

OS:Material,
  {90784f1b-8fef-447e-8a43-e8c80b7b7375}, !- Handle
  Metal Building Wall Insulation,         !- Name
  MediumRough,                            !- Roughness
  0.100611013987481,                      !- Thickness {m}
  0.049,                                  !- Conductivity {W/m-K}
  265.0000,                               !- Density {kg/m3}
  836.8000,                               !- Specific Heat {J/kg-K}
  0.9000,                                 !- Thermal Absorptance
  0.7000,                                 !- Solar Absorptance
  0.7000;                                 !- Visible Absorptance

OS:StandardsInformation:Construction,
  {1cd30a6c-6f9b-45f6-91ee-1340c7f1717c}, !- Handle
  {6125cf68-56fa-42fe-8473-beb54ac47afe}, ! Construction Name
  ,                                       ! Intended Surface Type
  Metal-Building,                         ! Construction Type
  1,                                      ! Perturbable Layer
  Insulation,                             ! Perturbable Layer Type
  ;                                       ! Other Perturbable Layer Type

! Exterior Walls
OS:Construction,
  {9145e1cb-cebe-4926-8401-46f623477a8c}, !- Handle
  Masonry_Steel_Frame_Wall,               !- Name
  ,                                       !- Surface Rendering Name
  {3159e303-9466-426d-b38f-0b8c49b6ebbd}, !- Layer 1
  {680094b1-e8af-4dbe-8376-089e3446caa6}, !- Layer 2
  {45c5f60b-e571-4df0-b957-ac1c23471853}; !- Layer 3

OS:Material,
  {3159e303-9466-426d-b38f-0b8c49b6ebbd}, !- Handle
  M01 100mm brick,                        !- Name
  MediumRough,                            !- Roughness
  0.1016,                                 !- Thickness {m}
  0.89,                                   !- Conductivity {W/m-K}
  1920,                                   !- Density {kg/m3}
  790,                                    !- Specific Heat {J/kg-K}
  0.9000,                                 !- Thermal Absorptance
  0.700,                                  !- Solar Absorptance
  0.700;                                  !- Visible Absorptance

OS:Material,
  {680094b1-e8af-4dbe-8376-089e3446caa6}, !- Handle
  Steel Frame Wall Insulation,            !- Name
  MediumRough,                            !- Roughness
  0.0950189409087894,                     !- Thickness {m}
  0.049,                                  !- Conductivity {W/m-K}
  265.0000,                               !- Density {kg/m3}
  836.8000,                               !- Specific Heat {J/kg-K}
  0.9000,                                 !- Thermal Absorptance
  0.7000,                                 !- Solar Absorptance
  0.7000;                                 !- Visible Absorptance

OS:StandardsInformation:Construction,
  {a0c43409-c02f-4f91-9fee-716bb162c2af}, !- Handle
  {9145e1cb-cebe-4926-8401-46f623477a8c}, ! Construction Name
  ,                                       ! Intended Surface Type
  Steel-Framed,                           ! Construction Type
  1,                                      ! Perturbable Layer
  Insulation,                             ! Perturbable Layer Type
  ;                                       ! Other Perturbable Layer Type

! Roof
OS:Construction,
  {12e65c04-4fe7-43d7-be95-b4b4697dba21}, !- Handle
  IEAD_Metal_Deck,                        !- Name
  ,                                       !- Surface Rendering Name
  {710ad160-8aeb-4062-8f83-09d1be38fb35}, !- Layer 1
  {9743e2d8-ff9c-49e7-8df5-8a623b427973}, !- Layer 2
  {61d3f0dd-1842-483e-961b-8d2e7b6d5be6}; !- Layer 3

OS:Material,
  {710ad160-8aeb-4062-8f83-09d1be38fb35}, !- Handle
  Roof Membrane,                          !- Name
  VeryRough,                              !- Roughness
  0.0095,                                 !- Thickness {m}
  0.1600,                                 !- Conductivity {W/m-K}
  1121.2900,                              !- Density {kg/m3}
  1460.0000,                              !- Specific Heat {J/kg-K}
  0.9000,                                 !- Thermal Absorptance
  0.7000,                                 !- Solar Absorptance
  0.7000;                                 !- Visible Absorptance

OS:Material,
  {9743e2d8-ff9c-49e7-8df5-8a623b427973}, !- Handle
  IEAD Roof Insulation,                   !- Name
  MediumRough,                            !- Roughness
  0.0955504349143314,                     !- Thickness {m}
  0.049,                                  !- Conductivity {W/m-K}
  265.0000,                               !- Density {kg/m3}
  836.8000,                               !- Specific Heat {J/kg-K}
  0.9000,                                 !- Thermal Absorptance
  0.7000,                                 !- Solar Absorptance
  0.7000;                                 !- Visible Absorptance

OS:Material,
  {61d3f0dd-1842-483e-961b-8d2e7b6d5be6}, !- Handle
  Metal Decking,                          !- Name
  MediumSmooth,                           !- Roughness
  0.0015,                                 !- Thickness {m}
  45.0060,                                !- Conductivity {W/m-K}
  7680.0000,                              !- Density {kg/m3}
  418.4000,                               !- Specific Heat {J/kg-K}
  0.9000,                                 !- Thermal Absorptance
  0.7000,                                 !- Solar Absorptance
  0.3000;                                 !- Visible Absorptance

OS:StandardsInformation:Construction,
  {c006c552-f6f1-4fd2-bcac-78bda905d79d}, !- Handle
  {12e65c04-4fe7-43d7-be95-b4b4697dba21}, ! Construction Name
  ,                                       ! Intended Surface Type
  IEAD,                                   ! Construction Type
  1,                                      ! Perturbable Layer
  Insulation,                             ! Perturbable Layer Type
  ;                                       ! Other Perturbable Layer Type

OS:Construction,
  {8dad8c53-2300-4f4c-9282-a48681afda3d}, !- Handle
  Insul_slab,                             !- Name
  ,                                       !- Surface Rendering Name
  {f66ea7e3-ab4b-4368-bb4c-da7a3dbe3821}, !- Layer 1
  {6bb29d8e-5537-45e4-8cf1-b4875515a23c}; !- Layer 2

OS:Material,
  {f66ea7e3-ab4b-4368-bb4c-da7a3dbe3821}, !- Handle
  Floor Insulation,                       !- Name
  MediumRough,                            !- Roughness
  0.0795,                                 !- Thickness {m}
  0.0450,                                 !- Conductivity {W/m-K}
  265.0000,                               !- Density {kg/m3}
  836.8000,                               !- Specific Heat {J/kg-K}
  0.9000,                                 !- Thermal Absorptance
  0.7000,                                 !- Solar Absorptance
  0.7000;                                 !- Visible Absorptance

OS:Material,
  {6bb29d8e-5537-45e4-8cf1-b4875515a23c}, !- Handle
  MAT-CC05 8 HW CONCRETE,                 !- Name
  Rough,                                  !- Roughness
  0.2032,                                 !- Thickness {m}
  1.3110,                                 !- Conductivity {W/m-K}
  2240.0000,                              !- Density {kg/m3}
  836.8000,                               !- Specific Heat {J/kg-K}
  0.9000,                                 !- Thermal Absorptance
  0.7000,                                 !- Solar Absorptance
  0.7000;                                 !- Visible Absorptance

OS:StandardsInformation:Construction,
  {9dd55a35-3135-4353-b1e5-37876dd923db}, !- Handle
  {8dad8c53-2300-4f4c-9282-a48681afda3d}, ! Construction Name
  ,                                       ! Intended Surface Type
  Exterior Floor:Slab,                    ! Construction Type
  0,                                      ! Perturbable Layer
  Insulation,                             ! Perturbable Layer Type
  ;                                       ! Other Perturbable Layer Type

OS:Construction,
  {640f8c52-ddc7-4f91-900f-a1094a48a64a}, !- Handle
  Insul_slab 1,                           !- Name
  ,                                       !- Surface Rendering Name
  {f66ea7e3-ab4b-4368-bb4c-da7a3dbe3821}, !- Layer 1
  {6bb29d8e-5537-45e4-8cf1-b4875515a23c}; !- Layer 2

OS:StandardsInformation:Construction,
  {1cab7229-7d32-4173-95ad-e54b29346678}, !- Handle
  {640f8c52-ddc7-4f91-900f-a1094a48a64a}, ! Construction Name
  ,                                       ! Intended Surface Type
  Exterior Floor:Slab,                    ! Construction Type
  0,                                      ! Perturbable Layer
  Insulation,                             ! Perturbable Layer Type
  ;                                       ! Other Perturbable Layer Type

OS:WindowMaterial:SimpleGlazingSystem,
  {79178c66-7764-4914-a32c-bcbf86656bc9}, !- Handle
  Glazing Layer,                          !- Name
  4.14513209830427,                       !- U-Factor {W/m2-K}
  0.7308,                                 !- Solar Heat Gain Coefficient
  0.7;                                    !- Visible Transmittance

OS:Construction,
  {76535683-6c1b-497e-8c6a-81bc427e2e8b}, !- Handle
  fenestration_4.14513209830427_0.7308_0.7, !- Name
  ,                                       !- Surface Rendering Name
  {79178c66-7764-4914-a32c-bcbf86656bc9}; !- Layer 1

OS:PlantLoop,
  {2e15cb8c-fd2a-42e9-a36c-b0db4584ac18}, !- Handle
  DistrictHeating 332,                    !- Name
  ,                                       !- Fluid Type
  ,                                       !- User Defined Fluid Type
  ,                                       !- Plant Equipment Operation Scheme Name
  {b60e318a-2c48-42bf-b411-30a97664b596}, !- Loop Temperature Setpoint Node Name
  ,                                       !- Maximum Loop Temperature {C}
  ,                                       !- Minimum Loop Temperature {C}
  ,                                       !- Maximum Loop Flow Rate {m3/s}
  ,                                       !- Minimum Loop Flow Rate {m3/s}
  Autocalculate,                          !- Plant Loop Volume {m3}
  {85c123f4-8a8e-48f1-88b0-18defa15b937}, !- Plant Side Inlet Node Name
  {57f236c3-36f4-4031-b549-8e6138729f5a}, !- Plant Side Outlet Node Name
  ,                                       !- Plant Side Branch List Name
  {b22f3d56-41d4-4b4d-9d0c-5291ed9be558}, !- Demand Side Inlet Node Name
  {eb8699cd-fc50-4833-8eea-6d96000e26b6}, !- Demand Side Outlet Node Name
  ,                                       !- Demand Side Branch List Name
  ,                                       !- Demand Side Connector List Name
  ,                                       !- Load Distribution Scheme
  ,                                       !- Availability Manager List Name
  ,                                       !- Plant Loop Demand Calculation Scheme
  ,                                       !- Common Pipe Simulation
  ;                                       !- Pressure Simulation Type

OS:Sizing:Plant,
  {004205fe-da38-4fbd-8b47-ed4181615795}, !- Handle
  {2e15cb8c-fd2a-42e9-a36c-b0db4584ac18}, !- Plant or Condenser Loop Name
  Heating,                                !- Loop Type
  82,                                     !- Design Loop Exit Temperature {C}
  11;                                     !- Loop Design Temperature Difference {deltaC}

OS:Node,
  {7583a5dd-62fc-4aaa-8258-2e3540d0b56d}, !- Handle
  Node 1,                                 !- Name
  {85c123f4-8a8e-48f1-88b0-18defa15b937}, !- Inlet Port
  {fcf49238-93c1-4331-9a32-af5a9bb146f2}; !- Outlet Port

OS:Node,
  {b60e318a-2c48-42bf-b411-30a97664b596}, !- Handle
  Node 2,                                 !- Name
  {8fbc821c-3542-445b-b63a-46e06c2342f4}, !- Inlet Port
  {57f236c3-36f4-4031-b549-8e6138729f5a}; !- Outlet Port

OS:Node,
  {367c661e-4846-4337-bad8-c494829e1f96}, !- Handle
  Node 3,                                 !- Name
  {ddd9c6d4-16d1-4db5-89fd-74b9fa7aa944}, !- Inlet Port
  {3af4958b-9ed7-4383-bac4-15858f3344ca}; !- Outlet Port

OS:Connector:Mixer,
  {7ed24152-469c-44c0-acfd-be46e653ea8d}, !- Handle
  Connector Mixer 1,                      !- Name
  {03ef1fad-b01e-47ff-a082-5de36d53e046}, !- Outlet Branch Name
  {75db3a45-9753-4830-96cf-c091de3ac63c}, !- Inlet Branch Name 1
  {a03c5b77-1af8-42a0-8c2f-289e92ed3ed4}; !- Inlet Branch Name 2

OS:Connector:Splitter,
  {e5f09acd-9ff5-45af-97fe-ad57c99074e7}, !- Handle
  Connector Splitter 1,                   !- Name
  {0662a23d-af0d-4f9a-9c66-73dd708a5479}, !- Inlet Branch Name
  {ddd9c6d4-16d1-4db5-89fd-74b9fa7aa944}, !- Outlet Branch Name 1
  {40b6140e-b30c-4cd7-b399-1e67b5004174}; !- Outlet Branch Name 2

OS:Connection,
  {85c123f4-8a8e-48f1-88b0-18defa15b937}, !- Handle
  Connection 1,                           !- Name
  {2e15cb8c-fd2a-42e9-a36c-b0db4584ac18}, !- Source Object
  11,                                     !- Outlet Port
  {7583a5dd-62fc-4aaa-8258-2e3540d0b56d}, !- Target Object
  2;                                      !- Inlet Port

OS:Connection,
  {ddd9c6d4-16d1-4db5-89fd-74b9fa7aa944}, !- Handle
  Connection 3,                           !- Name
  {e5f09acd-9ff5-45af-97fe-ad57c99074e7}, !- Source Object
  3,                                      !- Outlet Port
  {367c661e-4846-4337-bad8-c494829e1f96}, !- Target Object
  2;                                      !- Inlet Port

OS:Connection,
  {57f236c3-36f4-4031-b549-8e6138729f5a}, !- Handle
  Connection 6,                           !- Name
  {b60e318a-2c48-42bf-b411-30a97664b596}, !- Source Object
  3,                                      !- Outlet Port
  {2e15cb8c-fd2a-42e9-a36c-b0db4584ac18}, !- Target Object
  12;                                     !- Inlet Port

OS:Node,
  {0ec3f8e1-e2a8-46bc-bf09-135289e9f690}, !- Handle
  Node 4,                                 !- Name
  {b22f3d56-41d4-4b4d-9d0c-5291ed9be558}, !- Inlet Port
  {522a480e-e9e9-4dad-977d-5319852b36d2}; !- Outlet Port

OS:Node,
  {3407e035-6cb3-4855-9010-1ae66368db44}, !- Handle
  Node 5,                                 !- Name
  {a08e49fc-640b-4640-b233-1504a0b22a0f}, !- Inlet Port
  {eb8699cd-fc50-4833-8eea-6d96000e26b6}; !- Outlet Port

OS:Node,
  {90cb8a8e-d3da-4c4e-babb-fcb1dca676bf}, !- Handle
  Node 6,                                 !- Name
  {5b1ee197-55be-4f0e-9da1-29d3a001e430}, !- Inlet Port
  {9acd456b-4e8e-4ce0-872b-4ed2183289be}; !- Outlet Port

OS:Connector:Mixer,
  {0dc8b328-778a-4d33-98c2-c11bf0ea6b36}, !- Handle
  Connector Mixer 2,                      !- Name
  {a08e49fc-640b-4640-b233-1504a0b22a0f}, !- Outlet Branch Name
  {9acd456b-4e8e-4ce0-872b-4ed2183289be}; !- Inlet Branch Name 1

OS:Connector:Splitter,
  {5e17cd6b-ac69-4dc7-90ed-c28c8c73a462}, !- Handle
  Connector Splitter 2,                   !- Name
  {522a480e-e9e9-4dad-977d-5319852b36d2}, !- Inlet Branch Name
  {5b1ee197-55be-4f0e-9da1-29d3a001e430}; !- Outlet Branch Name 1

OS:Connection,
  {b22f3d56-41d4-4b4d-9d0c-5291ed9be558}, !- Handle
  Connection 7,                           !- Name
  {2e15cb8c-fd2a-42e9-a36c-b0db4584ac18}, !- Source Object
  14,                                     !- Outlet Port
  {0ec3f8e1-e2a8-46bc-bf09-135289e9f690}, !- Target Object
  2;                                      !- Inlet Port

OS:Connection,
  {522a480e-e9e9-4dad-977d-5319852b36d2}, !- Handle