
OS:Version,
  {f54fa0ee-7fc2-4f3b-9581-42487436a391}, !- Handle
  1.0.6;                                  !- Version Identifier

OS:Schedule:Ruleset,
  {e9688ce2-3b97-4fdd-96a8-884852514faa}, !- Handle
  Always_On,                              !- Name
  ,                                       !- Schedule Type Limits Name
  {8ca87de7-7764-4f4c-bc56-2165ab3ad8b1}, !- Default Day Schedule Name
  {60904548-2b03-4dfe-8c63-96ba261c7596}, !- Summer Design Day Schedule Name
  {af6a9045-4203-4795-9955-6c3faf00c34e}; !- Winter Design Day Schedule Name

OS:Schedule:Day,
  {8ca87de7-7764-4f4c-bc56-2165ab3ad8b1}, !- Handle
  Always_On_Default,                      !- Name
  ,                                       !- Schedule Type Limits Name
  ,                                       !- Interpolate to Timestep
  24,                                     !- Hour 1
  0,                                      !- Minute 1
  1;                                      !- Value Until Time 1

OS:Schedule:Day,
  {b238446a-e8a6-4b07-8ad8-c77d6493e4e4}, !- Handle
  Schedule Day 2,                         !- Name
  ,                                       !- Schedule Type Limits Name
  ,                                       !- Interpolate to Timestep
  24,                                     !- Hour 1
  0,                                      !- Minute 1
  0;                                      !- Value Until Time 1

OS:Schedule:Day,
  {af6a9045-4203-4795-9955-6c3faf00c34e}, !- Handle
  Always_On_Winter_Design_Day,            !- Name
  ,                                       !- Schedule Type Limits Name
  ,                                       !- Interpolate to Timestep
  24,                                     !- Hour 1
  0,                                      !- Minute 1
  1;                                      !- Value Until Time 1

OS:Schedule:Day,
  {3d4fb25d-a634-4283-a47b-8ec80686235f}, !- Handle
  Schedule Day 3,                         !- Name
  ,                                       !- Schedule Type Limits Name
  ,                                       !- Interpolate to Timestep
  24,                                     !- Hour 1
  0,                                      !- Minute 1
  0;                                      !- Value Until Time 1

OS:Schedule:Day,
  {60904548-2b03-4dfe-8c63-96ba261c7596}, !- Handle
  Always_On_Summer_Design_Day,            !- Name
  ,                                       !- Schedule Type Limits Name
  ,                                       !- Interpolate to Timestep
  24,                                     !- Hour 1
  0,                                      !- Minute 1
  1;                                      !- Value Until Time 1

OS:Schedule:Ruleset,
  {27a17b38-6630-4bfd-8d74-eec956fd6c5b}, !- Handle
  Always_Off,                             !- Name
  ,                                       !- Schedule Type Limits Name
  {b34dcb2d-8733-47fa-b336-2f7ba26d64fc}, !- Default Day Schedule Name
  {078478de-ed12-4bb4-9ce6-7814b07f58d8}, !- Summer Design Day Schedule Name
  {acd42d38-88a4-4a1e-a974-55cae1943ce8}; !- Winter Design Day Schedule Name

OS:Schedule:Day,
  {b34dcb2d-8733-47fa-b336-2f7ba26d64fc}, !- Handle
  Always_Off_Default,                     !- Name
  ,                                       !- Schedule Type Limits Name
  ,                                       !- Interpolate to Timestep
  24,                                     !- Hour 1
  0,                                      !- Minute 1
  0;                                      !- Value Until Time 1

OS:Schedule:Day,
  {be7fd17e-534e-40ce-9703-c3f33761c41c}, !- Handle
  Schedule Day 4,                         !- Name
  ,                                       !- Schedule Type Limits Name
  ,                                       !- Interpolate to Timestep
  24,                                     !- Hour 1
  0,                                      !- Minute 1
  0;                                      !- Value Until Time 1

OS:Schedule:Day,
  {acd42d38-88a4-4a1e-a974-55cae1943ce8}, !- Handle
  Always_Off_Winter_Design_Day,           !- Name
  ,                                       !- Schedule Type Limits Name
  ,                                       !- Interpolate to Timestep
  24,                                     !- Hour 1
  0,                                      !- Minute 1
  0;                                      !- Value Until Time 1

OS:Schedule:Day,
  {eee1c7a2-c11c-4eec-9c9c-7d9681161059}, !- Handle
  Schedule Day 5,                         !- Name
  ,                                       !- Schedule Type Limits Name
  ,                                       !- Interpolate to Timestep
  24,                                     !- Hour 1
  0,                                      !- Minute 1
  0;                                      !- Value Until Time 1

OS:Schedule:Day,
  {078478de-ed12-4bb4-9ce6-7814b07f58d8}, !- Handle
  Always_Off_Summer_Design_Day,           !- Name
  ,                                       !- Schedule Type Limits Name
  ,                                       !- Interpolate to Timestep
  24,                                     !- Hour 1
  0,                                      !- Minute 1
  0;                                      !- Value Until Time 1

OS:Schedule:Ruleset,
  {5f2b51be-afa9-4b6e-87c7-b30fe278bfaf}, !- Handle
  Deck_Temperature,                       !- Name
  ,                                       !- Schedule Type Limits Name
  {6adb6be0-d929-4403-a973-5fb0d9ed8216}, !- Default Day Schedule Name
  {eea295a4-f97b-4716-83eb-bafe12df020b}, !- Summer Design Day Schedule Name
  {b176acdd-f38e-45b3-8be5-cdb3e6d55b47}; !- Winter Design Day Schedule Name

OS:Schedule:Day,
  {6adb6be0-d929-4403-a973-5fb0d9ed8216}, !- Handle
  Deck_Temperature_Default,               !- Name
  ,                                       !- Schedule Type Limits Name
  ,                                       !- Interpolate to Timestep
  24,                                     !- Hour 1
  0,                                      !- Minute 1
  12.8;                                   !- Value Until Time 1

OS:Schedule:Day,
  {e6893697-1dde-4e11-a9bb-344eaf13499d}, !- Handle
  Schedule Day 6,                         !- Name
  ,                                       !- Schedule Type Limits Name
  ,                                       !- Interpolate to Timestep
  24,                                     !- Hour 1
  0,                                      !- Minute 1
  0;                                      !- Value Until Time 1

OS:Schedule:Day,
  {b176acdd-f38e-45b3-8be5-cdb3e6d55b47}, !- Handle
  Deck_Temperature_Winter_Design_Day,     !- Name
  ,                                       !- Schedule Type Limits Name
  ,                                       !- Interpolate to Timestep
  24,                                     !- Hour 1
  0,                                      !- Minute 1
  12.8;                                   !- Value Until Time 1

OS:Schedule:Day,
  {b9fefc09-68b9-43f3-b2bb-1a2182515b89}, !- Handle
  Schedule Day 7,                         !- Name
  ,                                       !- Schedule Type Limits Name
  ,                                       !- Interpolate to Timestep
  24,                                     !- Hour 1
  0,                                      !- Minute 1
  0;                                      !- Value Until Time 1

OS:Schedule:Day,
  {eea295a4-f97b-4716-83eb-bafe12df020b}, !- Handle
  Deck_Temperature_Summer_Design_Day,     !- Name
  ,                                       !- Schedule Type Limits Name
  ,                                       !- Interpolate to Timestep
  24,                                     !- Hour 1
  0,                                      !- Minute 1
  12.8;                                   !- Value Until Time 1

OS:Construction,
  {bb4c8ab8-663a-4fb2-8d7e-76a4af096685}, !- Handle
  INT-FLOOR-TOPSIDE,                      !- Name
  ,                                       !- Surface Rendering Name
  {c8d15a48-c907-4003-bc5b-47526c77e183}, !- Layer 1
  {43a69440-b1d8-4f99-89b0-a142c6d4f8b6}, !- Layer 2
  {b2ed8c8b-53d2-48a4-9185-ff218765db8e}; !- Layer 3

OS:Material,
  {c8d15a48-c907-4003-bc5b-47526c77e183}, !- Handle
  1/2IN Gypsum,                           !- Name
  Smooth,                                 !- Roughness
  0.0127,                                 !- Thickness {m}
  0.1600,                                 !- Conductivity {W/m-K}
  784.9000,                               !- Density {kg/m3}
  830.0000,                               !- Specific Heat {J/kg-K}
  0.9000,                                 !- Thermal Absorptance
  0.9200,                                 !- Solar Absorptance
  0.9200;                                 !- Visible Absorptance

OS:Material,
  {43a69440-b1d8-4f99-89b0-a142c6d4f8b6}, !- Handle
  4IN CONCRETE HW,                        !- Name
  Rough,                                  !- Roughness
  0.1016,                                 !- Thickness {m}
  1.3110,                                 !- Conductivity {W/m-K}
  2240.0000,                              !- Density {kg/m3}
  836.8000,                               !- Specific Heat {J/kg-K}
  0.9000,                                 !- Thermal Absorptance
  0.7000,                                 !- Solar Absorptance
  0.7000;                                 !- Visible Absorptance

OS:Material:NoMass,
  {b2ed8c8b-53d2-48a4-9185-ff218765db8e}, !- Handle
  CP02 CARPET PAD,                        !- Name
  VeryRough,                              !- Roughness
  0.2165,                                 !- Thermal Resistance {m2-K/W}
  0.9000,                                 !- Thermal Absorptance
  0.7000,                                 !- Solar Absorptance
  0.8000;                                 !- Visible Absorptance

OS:StandardsInformation:Construction,
  {376722d9-9850-4179-8ed4-a7e544648896}, !- Handle
  {bb4c8ab8-663a-4fb2-8d7e-76a4af096685}, ! Construction Name
  ,                                       ! Intended Surface Type
  Mass,                                   ! Construction Type
  0,                                      ! Perturbable Layer
  Insulation,                             ! Perturbable Layer Type
  ;                                       ! Other Perturbable Layer Type

OS:Construction,
  {e8de3e5b-af20-419d-83d1-ccd38a0b6fc9}, !- Handle
  INT-FLOOR-UNDERSIDE,                    !- Name
  ,                                       !- Surface Rendering Name
  {b2ed8c8b-53d2-48a4-9185-ff218765db8e}, !- Layer 1
  {43a69440-b1d8-4f99-89b0-a142c6d4f8b6}, !- Layer 2
  {c8d15a48-c907-4003-bc5b-47526c77e183}; !- Layer 3

OS:StandardsInformation:Construction,
  {83dd780b-c1d5-49ce-88b0-d4e4eb9ccea6}, !- Handle
  {e8de3e5b-af20-419d-83d1-ccd38a0b6fc9}, ! Construction Name
  ,                                       ! Intended Surface Type
  Mass,                                   ! Construction Type
  1,                                      ! Perturbable Layer
  Insulation,                             ! Perturbable Layer Type
  ;                                       ! Other Perturbable Layer Type

OS:Construction,
  {b6789044-38cd-4bd1-8f77-d601dba34be8}, !- Handle
  Standard_Int-Wall,                      !- Name
  ,                                       !- Surface Rendering Name
  {c8d15a48-c907-4003-bc5b-47526c77e183}, !- Layer 1
  {c8d15a48-c907-4003-bc5b-47526c77e183}; !- Layer 2

OS:StandardsInformation:Construction,
  {592438aa-fdc9-4fe0-8aca-729ac274711a}, !- Handle
  {b6789044-38cd-4bd1-8f77-d601dba34be8}, ! Construction Name
  ,                                       ! Intended Surface Type
  Mass,                                   ! Construction Type
  0,                                      ! Perturbable Layer
  Insulation,                             ! Perturbable Layer Type
  ;                                       ! Other Perturbable Layer Type

OS:DefaultSurfaceConstructions,
  {d4d90901-8d84-4073-924a-ac95e077e6da}, !- Handle
  Default Surface Constructions 1,        !- Name
  {bb4c8ab8-663a-4fb2-8d7e-76a4af096685}, !- Floor Construction Name
  {b6789044-38cd-4bd1-8f77-d601dba34be8}, !- Wall Construction Name
  {e8de3e5b-af20-419d-83d1-ccd38a0b6fc9}; !- Roof Ceiling Construction Name

OS:DefaultConstructionSet,
  {f3b90bdf-c08b-4cf0-a634-33f9e7577b25}, !- Handle
  Default Construction Set 1,             !- Name
  ,                                       !- Default Exterior Surface Constructions Name
  {d4d90901-8d84-4073-924a-ac95e077e6da}, !- Default Interior Surface Constructions Name
  ,                                       !- Default Ground Contact Surface Constructions Name
  ,                                       !- Default Exterior SubSurface Constructions Name
  ,                                       !- Default Interior SubSurface Constructions Name
  ,                                       !- Interior Partition Construction Name
  ,                                       !- Space Shading Construction Name
  ,                                       !- Building Shading Construction Name
  ;                                       !- Site Shading Construction Name

OS:Building,
  {dba52219-c102-4243-bcf6-92f7a50a5245}, !- Handle
  Building 1,                             !- Name
  ,                                       !- Building Type
  ,                                       !- North Axis {deg}
  ,                                       !- Nominal Floor to Floor Height {m}
  ,                                       !- Space Type Name
  {f3b90bdf-c08b-4cf0-a634-33f9e7577b25}, !- Default Construction Set Name
  ;                                       !- Default Schedule Set Name

! Exterior Walls: taken from DOE New Small Office Ref Bldg
OS:Construction,
  {1800f419-f378-45bf-9fa3-55e815f51db6}, !- Handle
  Masonry_Wall,                           !- Name
  ,                                       !- Surface Rendering Name
  {167319ad-45dc-42fe-b579-ca5677493d31}, !- Layer 1
  {9059211d-9967-4cef-9ac5-7efb574a009e}, !- Layer 2
  {9fb064e1-786c-4cce-a48f-caa3aac7a8a3}, !- Layer 3
  {c8d15a48-c907-4003-bc5b-47526c77e183}; !- Layer 4

OS:Material,
  {167319ad-45dc-42fe-b579-ca5677493d31}, !- Handle
  1IN Stucco,                             !- Name
  Smooth,                                 !- Roughness
  0.0253,                                 !- Thickness {m}
  0.6918,                                 !- Conductivity {W/m-K}
  1858.0000,                              !- Density {kg/m3}
  837.0000,                               !- Specific Heat {J/kg-K}
  0.9000,                                 !- Thermal Absorptance
  0.9200,                                 !- Solar Absorptance
  0.9200;                                 !- Visible Absorptance

OS:Material,
  {9059211d-9967-4cef-9ac5-7efb574a009e}, !- Handle
  8IN CONCRETE HW,                        !- Name
  Rough,                                  !- Roughness
  0.2032,                                 !- Thickness {m}
  1.3110,                                 !- Conductivity {W/m-K}
  2240.0000,                              !- Density {kg/m3}
  836.8000,                               !- Specific Heat {J/kg-K}
  0.9000,                                 !- Thermal Absorptance
  0.7000,                                 !- Solar Absorptance
  0.7000;                                 !- Visible Absorptance

OS:Material,
  {9fb064e1-786c-4cce-a48f-caa3aac7a8a3}, !- Handle
  Masonry Wall Insulation,                !- Name
  MediumRough,                            !- Roughness
  0.066600890235353,                      !- Thickness {m}
  0.049,                                  !- Conductivity {W/m-K}
  265.0000,                               !- Density {kg/m3}
  836.8000,                               !- Specific Heat {J/kg-K}
  0.9000,                                 !- Thermal Absorptance
  0.7000,                                 !- Solar Absorptance
  0.7000;                                 !- Visible Absorptance

OS:StandardsInformation:Construction,
  {fcc2f26b-1ece-49f4-9016-d320fd47f78f}, !- Handle
  {1800f419-f378-45bf-9fa3-55e815f51db6}, ! Construction Name
  ,                                       ! Intended Surface Type
  Mass,                                   ! Construction Type
  2,                                      ! Perturbable Layer
  Insulation,                             ! Perturbable Layer Type
  ;                                       ! Other Perturbable Layer Type

! Roof from DOE reference building new warehouse
OS:Construction,
  {218e554d-b733-4bab-a761-17c620fec855}, !- Handle
  Metal_Building_Roof,                    !- Name
  ,                                       !- Surface Rendering Name
  {3761fd44-af8c-4835-b71d-74e573c399de}, !- Layer 1
  {1508737e-0f5d-4856-ad1a-9edcec60a386}; !- Layer 2

OS:Material,
  {3761fd44-af8c-4835-b71d-74e573c399de}, !- Handle
  Metal Roofing,                          !- Name
  MediumSmooth,                           !- Roughness
  0.0015,                                 !- Thickness {m}
  45.0060,                                !- Conductivity {W/m-K}
  7680.0000,                              !- Density {kg/m3}
  418.4000,                               !- Specific Heat {J/kg-K}
  0.9000,                                 !- Thermal Absorptance
  0.7000,                                 !- Solar Absorptance
  0.3000;                                 !- Visible Absorptance

OS:Material,
  {1508737e-0f5d-4856-ad1a-9edcec60a386}, !- Handle
  Metal Building Roof Insulation,         !- Name
  MediumRough,                            !- Roughness
  0.12710269892257,                       !- Thickness {m}
  0.049,                                  !- Conductivity {W/m-K}
  265.0000,                               !- Density {kg/m3}
  836.8000,                               !- Specific Heat {J/kg-K}
  0.9000,                                 !- Thermal Absorptance
  0.7000,                                 !- Solar Absorptance
  0.7000;                                 !- Visible Absorptance

OS:StandardsInformation:Construction,
  {b7d5ef3a-de2a-4f30-94d2-bb26dbe56ee1}, !- Handle
  {218e554d-b733-4bab-a761-17c620fec855}, ! Construction Name
  ,                                       ! Intended Surface Type
  Metal-Building,                         ! Construction Type
  1,                                      ! Perturbable Layer
  Insulation,                             ! Perturbable Layer Type
  ;                                       ! Other Perturbable Layer Type

OS:Construction,
  {45a33c61-0f4e-4e55-bd87-4dabb5ca670e}, !- Handle
  Insul_slab,                             !- Name
  ,                                       !- Surface Rendering Name
  {1556c13d-1858-4673-a3d2-f17700542010}, !- Layer 1
  {29f411cf-8df4-4813-9743-7aa921b16603}; !- Layer 2

OS:Material,
  {1556c13d-1858-4673-a3d2-f17700542010}, !- Handle
  Floor Insulation,                       !- Name
  MediumRough,                            !- Roughness
  0.0795,                                 !- Thickness {m}
  0.0450,                                 !- Conductivity {W/m-K}
  265.0000,                               !- Density {kg/m3}
  836.8000,                               !- Specific Heat {J/kg-K}
  0.9000,                                 !- Thermal Absorptance
  0.7000,                                 !- Solar Absorptance
  0.7000;                                 !- Visible Absorptance

OS:Material,
  {29f411cf-8df4-4813-9743-7aa921b16603}, !- Handle
  MAT-CC05 8 HW CONCRETE,                 !- Name
  Rough,                                  !- Roughness
  0.2032,                                 !- Thickness {m}
  1.3110,                                 !- Conductivity {W/m-K}
  2240.0000,                              !- Density {kg/m3}
  836.8000,                               !- Specific Heat {J/kg-K}
  0.9000,                                 !- Thermal Absorptance
  0.7000,                                 !- Solar Absorptance
  0.7000;                                 !- Visible Absorptance

OS:StandardsInformation:Construction,
  {6a6afa0f-28cd-481f-b796-0b269fcefd98}, !- Handle
  {45a33c61-0f4e-4e55-bd87-4dabb5ca670e}, ! Construction Name
  ,                                       ! Intended Surface Type
  Exterior Floor:Slab,                    ! Construction Type
  0,                                      ! Perturbable Layer
  Insulation,                             ! Perturbable Layer Type
  ;                                       ! Other Perturbable Layer Type

OS:Construction,
  {953b939f-c059-4b66-af69-da1febc82349}, !- Handle
  Insul_slab 1,                           !- Name
  ,                                       !- Surface Rendering Name
  {1556c13d-1858-4673-a3d2-f17700542010}, !- Layer 1
  {29f411cf-8df4-4813-9743-7aa921b16603}; !- Layer 2

OS:StandardsInformation:Construction,
  {aacea11f-d0d8-4403-be31-66550a14313f}, !- Handle
  {953b939f-c059-4b66-af69-da1febc82349}, ! Construction Name
  ,                                       ! Intended Surface Type
  Exterior Floor:Slab,                    ! Construction Type
  0,                                      ! Perturbable Layer
  Insulation,                             ! Perturbable Layer Type
  ;                                       ! Other Perturbable Layer Type

OS:WindowMaterial:SimpleGlazingSystem,
  {4f29f207-dd9e-4f09-88cc-d1fde2f634b7}, !- Handle
  Glazing Layer,                          !- Name
  4.14513209830427,                       !- U-Factor {W/m2-K}
  0.7308,                                 !- Solar Heat Gain Coefficient
  0.7;                                    !- Visible Transmittance

OS:Construction,
  {1b452a4f-26a7-4a0a-972b-d1f12fc6ea43}, !- Handle
  fenestration_4.14513209830427_0.7308_0.7, !- Name
  ,                                       !- Surface Rendering Name
  {4f29f207-dd9e-4f09-88cc-d1fde2f634b7}; !- Layer 1

OS:PlantLoop,
  {dc42a7ad-89cd-48a4-81b1-4815e992a982}, !- Handle
  Boiler plant 338,                       !- Name
  Water,                                  !- Fluid Type
  ,                                       !- User Defined Fluid Type
  ,                                       !- Plant Equipment Operation Scheme Name
  {eda5a5e3-5a36-4e6d-9a29-82a4f951be68}, !- Loop Temperature Setpoint Node Name
  ,                                       !- Maximum Loop Temperature {C}
  ,                                       !- Minimum Loop Temperature {C}
  ,                                       !- Maximum Loop Flow Rate {m3/s}
  ,                                       !- Minimum Loop Flow Rate {m3/s}
  Autocalculate,                          !- Plant Loop Volume {m3}
  {d73c9c61-8556-4621-bec0-d8483df8aa95}, !- Plant Side Inlet Node Name
  {9e7ef1ae-5b81-47b8-a217-1d8ef71cf9aa}, !- Plant Side Outlet Node Name
  ,                                       !- Plant Side Branch List Name
  {56611413-3475-4863-a3ba-2be20a2d696d}, !- Demand Side Inlet Node Name
  {90dd7c9c-43e7-425d-b473-edf1d2e3b553}, !- Demand Side Outlet Node Name
  ,                                       !- Demand Side Branch List Name
  ,                                       !- Demand Side Connector List Name
  ,                                       !- Load Distribution Scheme
  ,                                       !- Availability Manager List Name
  ,                                       !- Plant Loop Demand Calculation Scheme
  ,                                       !- Common Pipe Simulation
  ;                                       !- Pressure Simulation Type

OS:Sizing:Plant,
  {b006b238-669b-408d-ba22-785114e29614}, !- Handle
  {dc42a7ad-89cd-48a4-81b1-4815e992a982}, !- Plant or Condenser Loop Name
  Heating,                                !- Loop Type
  82,                                     !- Design Loop Exit Temperature {C}
  11;                                     !- Loop Design Temperature Difference {deltaC}

OS:Node,
  {3f043f45-4934-4459-9bab-a13f8b7d3c96}, !- Handle
  Node 1,                                 !- Name
  {d73c9c61-8556-4621-bec0-d8483df8aa95}, !- Inlet Port
  {aadeb2ff-297c-4294-aed2-980c917c51bd}; !- Outlet Port

OS:Node,
  {eda5a5e3-5a36-4e6d-9a29-82a4f951be68}, !- Handle
  Node 2,                                 !- Name
  {6e78d3db-23df-42f2-8ae7-e4d9eb326d01}, !- Inlet Port
  {9e7ef1ae-5b81-47b8-a217-1d8ef71cf9aa}; !- Outlet Port

OS:Node,
  {e4c8a886-4af9-433f-bf61-c36d751dc37e}, !- Handle
  Node 3,                                 !- Name
  {3abe3df9-81c7-4416-94f4-652c22761377}, !- Inlet Port
  {f6eff740-8470-4619-bc51-adf74be49966}; !- Outlet Port

OS:Connector:Mixer,
  {68bbaef5-83a4-4b9f-9c6b-56d2c7297824}, !- Handle
  Connector Mixer 1,                      !- Name
  {73d001c7-69a0-4fa9-9218-9e5d4b13d3f3}, !- Outlet Branch Name
  {4bb0ed5e-c50c-48ad-8687-95515fa78802}, !- Inlet Branch Name 1
  {d1f7fa36-46ea-4de8-8b35-170aaab74c75}; !- Inlet Branch Name 2

OS:Connector:Splitter,
  {154f7ee7-800d-4c78-ae5d-4977321ef5bb}, !- Handle
  Connector Splitter 1,                   !- Name
  {4743bc35-552c-4381-8378-a6ee16199e48}, !- Inlet Branch Name
  {3abe3df9-81c7-4416-94f4-652c22761377}, !- Outlet Branch Name 1
  {fa9eef88-54ef-4417-8baf-a272cb830590}; !- Outlet Branch Name 2

OS:Connection,
  {d73c9c61-8556-4621-bec0-d8483df8aa95}, !- Handle
  Connection 1,                           !- Name
  {dc42a7ad-89cd-48a4-81b1-4815e992a982}, !- Source Object
  11,                                     !- Outlet Port
  {3f043f45-4934-4459-9bab-a13f8b7d3c96}, !- Target Object
  2;                                      !- Inlet Port

OS:Connection,
  {3abe3df9-81c7-4416-94f4-652c22761377}, !- Handle
  Connection 3,                           !- Name
  {154f7ee7-800d-4c78-ae5d-4977321ef5bb}, !- Source Object
  3,                                      !- Outlet Port
  {e4c8a886-4af9-433f-bf61-c36d751dc37e}, !- Target Object
  2;                                      !- Inlet Port

OS:Connection,
  {9e7ef1ae-5b81-47b8-a217-1d8ef71cf9aa}, !- Handle
  Connection 6,                           !- Name
  {eda5a5e3-5a36-4e6d-9a29-82a4f951be68}, !- Source Object
  3,                                      !- Outlet Port
  {dc42a7ad-89cd-48a4-81b1-4815e992a982}, !- Target Object
  12;                                     !- Inlet Port

OS:Node,
  {2c8b1b28-5b1c-46ba-b8a5-a9e832a919f8}, !- Handle
  Node 4,                                 !- Name
  {56611413-3475-4863-a3ba-2be20a2d696d}, !- Inlet Port
  {014efb6a-13f4-428c-a7fb-fd7dae4172bc}; !- Outlet Port

OS:Node,
  {3adc07eb-a299-4b8a-884d-68d7c6379d3a}, !- Handle
  Node 5,                                 !- Name
  {3c882c19-67db-4d8a-ad21-cd73b00caf81}, !- Inlet Port
  {90dd7c9c-43e7-425d-b473-edf1d2e3b553}; !- Outlet Port

OS:Node,
  {bbab834f-8354-47a1-8625-7586aab36c72}, !- Handle
  Node 6,                                 !- Name
  {ea602545-39fd-48d7-854b-221b9b364a23}, !- Inlet Port
  {9574bf58-6ca5-46ca-9c5e-8ceaa11cbc59}; !- Outlet Port

OS:Connector:Mixer,
  {9b4292bd-c925-4ea6-b66f-9c235d380222}, !- Handle
  Connector Mixer 2,                      !- Name
  {3c882c19-67db-4d8a-ad21-cd73b00caf81}, !- Outlet Branch Name
  {9574bf58-6ca5-46ca-9c5e-8ceaa11cbc59}; !- Inlet Branch Name 1

OS:Connector:Splitter,
  {eadef294-f060-4f8b-a55f-79d2877e74d5}, !- Handle
  Connector Splitter 2,                   !- Name
  {014efb6a-13f4-428c-a7fb-fd7dae4172bc}, !- Inlet Branch Name
  {ea602545-39fd-48d7-854b-221b9b364a23}; !- Outlet Branch Name 1

OS:Connection,
  {56611413-3475-4863-a3ba-2be20a2d696d}, !- Handle
  Connection 7,                           !- Name
  {dc42a7ad-89cd-48a4-81b1-4815e992a982}, !- Source Object
  14,                                     !- Outlet Port
  {2c8b1b28-5b1c-46ba-b8a5-a9e832a919f8}, !- Target Object
  2;                                      !- Inlet Port

OS:Connection,
  {014efb6a-13f4-428c-a7fb-fd7dae4172bc}, !- Handle
  Connection 8,                           !- Name
  {2c8b1b28-5b1c-46ba-b8a5-a9e832a919f8}, !- Source Object
  3,                                      !- Outlet Port
  {eadef294-f060-4f8b-a55f-79d2877e74d5}, !- Target Object
  2;                                      !- Inlet Port

OS:Connection,
  {ea602545-39fd-48d7-854b-221b9b364a23}, !- Handle
  Connection 9,                           !- Name
  {eadef294-f060-4f8b-a55f-79d2877e74d5}, !- Source Object
  3,                                      !- Outlet Port
  {bbab834f-8354-47a1-8625-7586aab36c72}, !- Target Object
  2;                                      !- Inlet Port

OS:Connection,
  {9574bf58-6ca5-46ca-9c5e-8ceaa11cbc59}, !- Handle
  Connection 10,                          !- Name
  {bbab834f-8354-47a1-8625-7586aab36c72}, !- Source Object
  3,                                      !- Outlet Port
  {9b4292bd-c925-4ea6-b66f-9c235d380222}, !- Target Object
  3;                                      !- Inlet Port

OS:Connection,
  {3c882c19-67db-4d8a-ad21-cd73b00caf81}, !- Handle
  Connection 11,                          !- Name
  {9b4292bd-c925-4ea6-b66f-9c235d380222}, !- Source Object
  2,                                      !- Outlet Port
  {3adc07eb-a299-4b8a-884d-68d7c6379d3a}, !- Target Object
  2;                                      !- Inlet Port

OS:Connection,
  {90dd7c9c-43e7-425d-b473-edf1d2e3b553}, !- Handle
  Connection 12,                          !- Name
  {3adc07eb-a299-4b8a-884d-68d7c6379d3a}, !- Source Object
  3,                                      !- Outlet Port
  {dc42a7ad-89cd-48a4-81b1-4815e992a982}, !- Target Object
  15;                                     !- Inlet Port

OS:Pump:VariableSpeed,
  {c1255f92-3ace-4c01-b2f0-9282012f7310}, !- Handle
  Heating: Pump for Boiler,               !- Name
  {aadeb2ff-297c-4294-aed2-980c917c51bd}, !- Inlet Node Name
  {d34c306a-2d36-47f8-b9bc-168e281e8234}, !- Outlet Node Name
  ,                                       !- Rated Flow Rate {m3/s}