!4696 random number
!generated by Simulator v25.0
!date =     06-Feb-2010 time=14:54:17
!calctype = 2
!diskb =    C:\Hevacomp Projects\NA\Single Rm test case\Part L Level 5 - 0\Hevacomp DDB\
!diskc =    C:\Program Files\Heva25\HEVADATA\

  Version,6.0;

  Timestep,4;

  Building,
    Hevacomp,                !- Name
    0,                       !- North Axis {deg}
    City,                    !- Terrain
    0.04,                    !- Loads Convergence Tolerance Value
    0.4,                     !- Temperature Convergence Tolerance Value {deltaC}
    FullExterior,            !- Solar Distribution
    25;                      !- Maximum Number of Warmup Days

  HeatBalanceAlgorithm,CTF;

  RunPeriodControl:DaylightSavingTime,
    3 / 26,                  !- Start Date
    10 / 28;                 !- End Date

  SurfaceConvectionAlgorithm:Inside,TARP;

  SurfaceConvectionAlgorithm:Outside,TARP;

  SimulationControl,
    No,                      !- Do Zone Sizing Calculation
    No,                      !- Do System Sizing Calculation
    No,                      !- Do Plant Sizing Calculation
    No,                      !- Run Simulation for Sizing Periods
    Yes;                     !- Run Simulation for Weather File Run Periods

  GlobalGeometryRules,
    LowerRightCorner,        !- Starting Vertex Position
    CounterClockWise,        !- Vertex Entry Direction
    Relative;                !- Coordinate System

  RunPeriod,
    ,                        !- Name
    7,                       !- Begin Month
    1,                       !- Begin Day of Month
    7,                       !- End Month
    31,                      !- End Day of Month
    Monday,                  !- Day of Week for Start Day
    No,                      !- Use Weather File Holidays and Special Days
    No,                      !- Use Weather File Daylight Saving Period
    Yes,                     !- Apply Weekend Holiday Rule
    Yes,                     !- Use Weather File Rain Indicators
    Yes;                     !- Use Weather File Snow Indicators

  Site:Location,
    Reims (w-s),             !- Name
    49.3,                    !- Latitude {deg}
    -10.967,                 !- Longitude {deg}
    0,                       !- Time Zone {hr}
    94;                      !- Elevation {m}

  Site:GroundTemperature:BuildingSurface,18,18,18,18,18,18,18,18,18,18,18,18;

  Site:GroundReflectance,0.2,0.2,0.2,0.2,0.2,0.2,0.2,0.2,0.2,0.2,0.2,0.2;

  WindowMaterial:Glazing,
    GLASS1,                  !- Name
    SpectralAverage,         !- Optical Data Type
    ,                        !- Window Glass Spectral Data Set Name
    0.006,                   !- Thickness {m}
    0.74,                    !- Solar Transmittance at Normal Incidence
    0.13,                    !- Front Side Solar Reflectance at Normal Incidence
    0.13,                    !- Back Side Solar Reflectance at Normal Incidence
    0.74,                    !- Visible Transmittance at Normal Incidence
    0.13,                    !- Front Side Visible Reflectance at Normal Incidence
    0.13,                    !- Back Side Visible Reflectance at Normal Incidence
    0,                       !- Infrared Transmittance at Normal Incidence
    0.837,                   !- Front Side Infrared Hemispherical Emissivity
    0.837,                   !- Back Side Infrared Hemispherical Emissivity
    1;                       !- Conductivity {W/m-K}

  WindowMaterial:Glazing,
    GLASS2,                  !- Name
    SpectralAverage,         !- Optical Data Type
    ,                        !- Window Glass Spectral Data Set Name
    0.006,                   !- Thickness {m}
    0.66,                    !- Solar Transmittance at Normal Incidence
    0.11,                    !- Front Side Solar Reflectance at Normal Incidence
    0.11,                    !- Back Side Solar Reflectance at Normal Incidence
    0.66,                    !- Visible Transmittance at Normal Incidence
    0.11,                    !- Front Side Visible Reflectance at Normal Incidence
    0.11,                    !- Back Side Visible Reflectance at Normal Incidence
    0,                       !- Infrared Transmittance at Normal Incidence
    0.168,                   !- Front Side Infrared Hemispherical Emissivity
    0.837,                   !- Back Side Infrared Hemispherical Emissivity
    1;                       !- Conductivity {W/m-K}

  WindowMaterial:Glazing,
    GLASS3,                  !- Name
    SpectralAverage,         !- Optical Data Type
    ,                        !- Window Glass Spectral Data Set Name
    0.006,                   !- Thickness {m}
    0.37,                    !- Solar Transmittance at Normal Incidence
    0.29,                    !- Front Side Solar Reflectance at Normal Incidence
    0.29,                    !- Back Side Solar Reflectance at Normal Incidence
    0.37,                    !- Visible Transmittance at Normal Incidence
    0.29,                    !- Front Side Visible Reflectance at Normal Incidence
    0.29,                    !- Back Side Visible Reflectance at Normal Incidence
    0,                       !- Infrared Transmittance at Normal Incidence
    0.837,                   !- Front Side Infrared Hemispherical Emissivity
    0.025,                   !- Back Side Infrared Hemispherical Emissivity
    1.05;                    !- Conductivity {W/m-K}

  WindowMaterial:Glazing,
    GLASS4,                  !- Name
    SpectralAverage,         !- Optical Data Type
    ,                        !- Window Glass Spectral Data Set Name
    0.006,                   !- Thickness {m}
    0.79,                    !- Solar Transmittance at Normal Incidence
    0.07,                    !- Front Side Solar Reflectance at Normal Incidence
    0.07,                    !- Back Side Solar Reflectance at Normal Incidence
    0.79,                    !- Visible Transmittance at Normal Incidence
    0.07,                    !- Front Side Visible Reflectance at Normal Incidence
    0.07,                    !- Back Side Visible Reflectance at Normal Incidence
    0,                       !- Infrared Transmittance at Normal Incidence
    0.837,                   !- Front Side Infrared Hemispherical Emissivity
    0.837,                   !- Back Side Infrared Hemispherical Emissivity
    1;                       !- Conductivity {W/m-K}

  WindowMaterial:Gas,
    GAS1,                    !- Name
    ARGON,                   !- Gas Type
    0.016;                   !- Thickness {m}

  WindowMaterial:Shade,
    WSHADE-1,                !- Name
    0.07,                    !- Solar Transmittance
    0.4,                     !- Solar Reflectance
    0.07,                    !- Visible Transmittance
    0.4,                     !- Visible Reflectance
    0.837,                   !- Thermal Hemispherical Emissivity
    0,                       !- Thermal Transmittance
    0.001,                   !- Thickness {m}
    100,                     !- Conductivity {W/m-K}
    0.1,                     !- Shade to Glass Distance {m}
    0,                       !- Top Opening Multiplier
    0,                       !- Bottom Opening Multiplier
    0,                       !- Left-Side Opening Multiplier
    0,                       !- Right-Side Opening Multiplier
    0;                       !- Airflow Permeability

  Construction,
    WINDOW-27-NOSHADE,       !- Name
    GLASS1,                  !- Outside Layer
    GAS1,                    !- Layer 2
    GLASS2;                  !- Layer 3

  Construction,
    WINDOW-27-WITHSHADE,     !- Name
    GLASS1,                  !- Outside Layer
    GAS1,                    !- Layer 2
    GLASS2,                  !- Layer 3
    WSHADE-1;                !- Layer 4

  Construction,
    WINDOW-14-NOSHADE,       !- Name
    GLASS3,                  !- Outside Layer
    GAS1,                    !- Layer 2
    GLASS4;                  !- Layer 3

  Material,
    MAT1,                    !- Name
    MediumRough,             !- Roughness
    0.105,                   !- Thickness {m}
    0.84,                    !- Conductivity {W/m-K}
    1700,                    !- Density {kg/m3}
    800,                     !- Specific Heat {J/kg-K}
    0.9,                     !- Thermal Absorptance
    0.6,                     !- Solar Absorptance
    0.6;                     !- Visible Absorptance

  Material,
    MAT2,                    !- Name
    MediumRough,             !- Roughness
    0.125,                   !- Thickness {m}
    0.04,                    !- Conductivity {W/m-K}
    12,                      !- Density {kg/m3}
    840,                     !- Specific Heat {J/kg-K}
    0.9,                     !- Thermal Absorptance
    0.6,                     !- Solar Absorptance
    0.6;                     !- Visible Absorptance

  Material,
    MAT3,                    !- Name
    MediumRough,             !- Roughness
    0.1,                     !- Thickness {m}
    0.29,                    !- Conductivity {W/m-K}
    720,                     !- Density {kg/m3}
    1069,                    !- Specific Heat {J/kg-K}
    0.9,                     !- Thermal Absorptance
    0.6,                     !- Solar Absorptance
    0.6;                     !- Visible Absorptance

  Material,
    MAT4,                    !- Name
    MediumRough,             !- Roughness
    0.012,                   !- Thickness {m}
    0.18,                    !- Conductivity {W/m-K}
    800,                     !- Density {kg/m3}
    840,                     !- Specific Heat {J/kg-K}
    0.9,                     !- Thermal Absorptance
    0.6,                     !- Solar Absorptance
    0.6;                     !- Visible Absorptance

  Material,
    MAT5,                    !- Name
    MediumRough,             !- Roughness
    0.006,                   !- Thickness {m}
    2,                       !- Conductivity {W/m-K}
    2700,                    !- Density {kg/m3}
    753,                     !- Specific Heat {J/kg-K}
    0.9,                     !- Thermal Absorptance
    0.6,                     !- Solar Absorptance
    0.6;                     !- Visible Absorptance

  Material,
    MAT6,                    !- Name
    MediumRough,             !- Roughness
    0.002,                   !- Thickness {m}
    0.41,                    !- Conductivity {W/m-K}
    960,                     !- Density {kg/m3}
    1000,                    !- Specific Heat {J/kg-K}
    0.9,                     !- Thermal Absorptance
    0.6,                     !- Solar Absorptance
    0.6;                     !- Visible Absorptance

  Material,
    MAT7,                    !- Name
    MediumRough,             !- Roughness
    0.2,                     !- Thickness {m}
    0.033,                   !- Conductivity {W/m-K}
    32,                      !- Density {kg/m3}
    1210,                    !- Specific Heat {J/kg-K}
    0.9,                     !- Thermal Absorptance
    0.6,                     !- Solar Absorptance
    0.6;                     !- Visible Absorptance

  Material,
    MAT8,                    !- Name
    MediumRough,             !- Roughness
    0.012,                   !- Thickness {m}
    0.15,                    !- Conductivity {W/m-K}
    800,                     !- Density {kg/m3}
    1000,                    !- Specific Heat {J/kg-K}
    0.9,                     !- Thermal Absorptance
    0.6,                     !- Solar Absorptance
    0.6;                     !- Visible Absorptance

  Material,
    MAT9,                    !- Name
    MediumRough,             !- Roughness
    0.025,                   !- Thickness {m}
    0.14,                    !- Conductivity {W/m-K}
    530,                     !- Density {kg/m3}
    2760,                    !- Specific Heat {J/kg-K}
    0.9,                     !- Thermal Absorptance
    0.6,                     !- Solar Absorptance
    0.6;                     !- Visible Absorptance

  Material,
    MAT10,                   !- Name
    MediumRough,             !- Roughness
    0.012,                   !- Thickness {m}
    0.16,                    !- Conductivity {W/m-K}
    950,                     !- Density {kg/m3}
    840,                     !- Specific Heat {J/kg-K}
    0.9,                     !- Thermal Absorptance
    0.6,                     !- Solar Absorptance
    0.6;                     !- Visible Absorptance

  Material,
    MAT11,                   !- Name
    MediumRough,             !- Roughness
    0.019,                   !- Thickness {m}
    0.14,                    !- Conductivity {W/m-K}
    650,                     !- Density {kg/m3}
    1200,                    !- Specific Heat {J/kg-K}
    0.9,                     !- Thermal Absorptance
    0.6,                     !- Solar Absorptance
    0.6;                     !- Visible Absorptance

  Material,
    MAT12,                   !- Name
    MediumRough,             !- Roughness
    0.5,                     !- Thickness {m}
    1.127,                   !- Conductivity {W/m-K}
    1842,                    !- Density {kg/m3}
    898,                     !- Specific Heat {J/kg-K}
    0.9,                     !- Thermal Absorptance
    0.9,                     !- Solar Absorptance
    0.9;                     !- Visible Absorptance

  Material,
    MAT13,                   !- Name
    MediumRough,             !- Roughness
    0.15,                    !- Thickness {m}
    1.4,                     !- Conductivity {W/m-K}
    2100,                    !- Density {kg/m3}
    840,                     !- Specific Heat {J/kg-K}
    0.9,                     !- Thermal Absorptance
    0.9,                     !- Solar Absorptance
    0.9;                     !- Visible Absorptance

  Material,
    MAT14,                   !- Name
    MediumRough,             !- Roughness
    0.05,                    !- Thickness {m}
    0.41,                    !- Conductivity {W/m-K}
    1200,                    !- Density {kg/m3}
    840,                     !- Specific Heat {J/kg-K}
    0.9,                     !- Thermal Absorptance
    0.9,                     !- Solar Absorptance
    0.9;                     !- Visible Absorptance

  Material,
    MAT15,                   !- Name
    MediumRough,             !- Roughness
    0.012,                   !- Thickness {m}
    0.06,                    !- Conductivity {W/m-K}
    200,                     !- Density {kg/m3}
    1000,                    !- Specific Heat {J/kg-K}
    0.9,                     !- Thermal Absorptance
    0.6,                     !- Solar Absorptance
    0.6;                     !- Visible Absorptance

  Material,
    MAT16,                   !- Name
    MediumRough,             !- Roughness
    0.03,                    !- Thickness {m}
    0.16,                    !- Conductivity {W/m-K}
    770,                     !- Density {kg/m3}
    1200,                    !- Specific Heat {J/kg-K}
    0.9,                     !- Thermal Absorptance
    0.6,                     !- Solar Absorptance
    0.6;                     !- Visible Absorptance

  Material,
    MATFURN1,                !- Name
    MediumRough,             !- Roughness
    0.01,                    !- Thickness {m}
    0.1,                     !- Conductivity {W/m-K}
    600,                     !- Density {kg/m3}
    1000,                    !- Specific Heat {J/kg-K}
    0.9,                     !- Thermal Absorptance
    0.6,                     !- Solar Absorptance
    0.6;                     !- Visible Absorptance

  Material,
    MATFURN2,                !- Name
    MediumRough,             !- Roughness
    0.025,                   !- Thickness {m}
    0.1,                     !- Conductivity {W/m-K}
    600,                     !- Density {kg/m3}
    1000,                    !- Specific Heat {J/kg-K}
    0.9,                     !- Thermal Absorptance
    0.6,                     !- Solar Absorptance
    0.6;                     !- Visible Absorptance

  Material,
    MATFURN3,                !- Name
    MediumRough,             !- Roughness
    0.2,                     !- Thickness {m}
    0.1,                     !- Conductivity {W/m-K}
    600,                     !- Density {kg/m3}
    1000,                    !- Specific Heat {J/kg-K}
    0.9,                     !- Thermal Absorptance
    0.6,                     !- Solar Absorptance
    0.6;                     !- Visible Absorptance

  Material,
    DUMMYmat,                !- Name
    MediumRough,             !- Roughness
    1,                       !- Thickness {m}
    0.03,                    !- Conductivity {W/m-K}
    30,                      !- Density {kg/m3}
    1000,                    !- Specific Heat {J/kg-K}
    0.01,                    !- Thermal Absorptance
    0.01,                    !- Solar Absorptance
    0.01;                    !- Visible Absorptance

  Material:AirGap,
    AIR1,                    !- Name
    9.153774E-02;            !- Thermal Resistance {m2-K/W}

  Material:AirGap,
    AIR2,                    !- Name
    0.1830755;               !- Thermal Resistance {m2-K/W}

  Material:AirGap,
    AIR3,                    !- Name
    0.1912054;               !- Thermal Resistance {m2-K/W}

  Material:AirGap,
    AIR4,                    !- Name
    0.1912054;               !- Thermal Resistance {m2-K/W}

  Construction,
    GFLOORS-3,               !- Name
    MAT12,                   !- Outside Layer
    MAT13,                   !- Layer 2
    MAT14,                   !- Layer 3
    MAT15;                   !- Layer 4

  Construction,
    CEILINGS-3,              !- Name
    MAT11,                   !- Outside Layer
    AIR3,                    !- Layer 2
    MAT10;                   !- Layer 3

  Construction,
    INTERNAL.S-7,            !- Name
    MAT4,                    !- Outside Layer
    AIR2,                    !- Layer 2
    MAT4;                    !- Layer 3

  Construction,
    WALLS-42,                !- Name
    MAT1,                    !- Outside Layer
    AIR1,                    !- Layer 2
    MAT2,                    !- Layer 3
    MAT3,                    !- Layer 4
    MAT4;                    !- Layer 5

  Construction,
    DOORS-1,                 !- Name
    MAT16;                   !- Outside Layer

  Construction,
    ROOFS-15,                !- Name
    MAT5,                    !- Outside Layer
    MAT6,                    !- Layer 2
    MAT7,                    !- Layer 3
    MAT8,                    !- Layer 4
    AIR3,                    !- Layer 5
    MAT9,                    !- Layer 6
    AIR3,                    !- Layer 7
    MAT10;                   !- Layer 8

  Construction,
    FLOORS-3,                !- Name
    MAT10,                   !- Outside Layer
    AIR4,                    !- Layer 2
    MAT11;                   !- Layer 3

  Construction,
    FURN1,                   !- Name
    MATFURN1;                !- Outside Layer

  Construction,
    FURN2,                   !- Name
    MATFURN2;                !- Outside Layer

  Construction,
    FURN3,                   !- Name
    MATFURN3;                !- Outside Layer

  Construction,
    DUMMY,                   !- Name
    DUMMYmat;                !- Outside Layer

  Zone,
    0.1,                     !- Name
    0,                       !- Direction of Relative North {deg}
    0,                       !- X Origin {m}
    0,                       !- Y Origin {m}
    0,                       !- Z Origin {m}
    ,                        !- Type
    1,                       !- Multiplier
    4.169,                   !- Ceiling Height {m}
    43.7745;                 !- Volume {m3}

  Zone,
    0.2,                     !- Name
    0,                       !- Direction of Relative North {deg}
    0,                       !- X Origin {m}
    0,                       !- Y Origin {m}
    0,                       !- Z Origin {m}
    ,                        !- Type
    1,                       !- Multiplier
    4.169,                   !- Ceiling Height {m}
    43.04493;                !- Volume {m3}

  Zone,
    0.3,                     !- Name
    0,                       !- Direction of Relative North {deg}
    0,                       !- X Origin {m}
    0,                       !- Y Origin {m}
    0,                       !- Z Origin {m}
    ,                        !- Type
    1,                       !- Multiplier
    4.169,                   !- Ceiling Height {m}
    197.2771;                !- Volume {m3}

  Zone,
    0.4,                     !- Name
    0,                       !- Direction of Relative North {deg}
    0,                       !- X Origin {m}
    0,                       !- Y Origin {m}
    0,                       !- Z Origin {m}
    ,                        !- Type
    1,                       !- Multiplier
    4.169,                   !- Ceiling Height {m}
    639.3578;                !- Volume {m3}

  Zone,
    0.5,                     !- Name
    0,                       !- Direction of Relative North {deg}
    0,                       !- X Origin {m}
    0,                       !- Y Origin {m}
    0,                       !- Z Origin {m}
    ,                        !- Type
    1,                       !- Multiplier
    4.17,                    !- Ceiling Height {m}
    644.3901;                !- Volume {m3}

  Zone,
    0.6,                     !- Name
    0,                       !- Direction of Relative North {deg}
    0,                       !- X Origin {m}
    0,                       !- Y Origin {m}
    0,                       !- Z Origin {m}
    ,                        !- Type
    1,                       !- Multiplier
    4.169,                   !- Ceiling Height {m}
    388.3424;                !- Volume {m3}

  Zone,
    0.7,                     !- Name
    0,                       !- Direction of Relative North {deg}
    0,                       !- X Origin {m}
    0,                       !- Y Origin {m}
    0,                       !- Z Origin {m}
    ,                        !- Type
    1,                       !- Multiplier
    4.169,                   !- Ceiling Height {m}
    382.7142;                !- Volume {m3}

  Zone,
    1.1,                     !- Name
    0,                       !- Direction of Relative North {deg}
    0,                       !- X Origin {m}
    0,                       !- Y Origin {m}
    0,                       !- Z Origin {m}
    ,                        !- Type
    1,                       !- Multiplier
    6.449903,                !- Ceiling Height {m}
    67.72398;                !- Volume {m3}

  Zone,
    1.2,                     !- Name
    0,                       !- Direction of Relative North {deg}
    0,                       !- X Origin {m}
    0,                       !- Y Origin {m}
    0,                       !- Z Origin {m}
    ,                        !- Type
    1,                       !- Multiplier
    6.449903,                !- Ceiling Height {m}
    67.72398;                !- Volume {m3}

  Zone,
    1.4,                     !- Name
    0,                       !- Direction of Relative North {deg}
    0,                       !- X Origin {m}
    0,                       !- Y Origin {m}
    0,                       !- Z Origin {m}
    ,                        !- Type
    1,                       !- Multiplier
    6.925576,                !- Ceiling Height {m}
    645.1174;                !- Volume {m3}

  Zone,
    1.5,                     !- Name
    0,                       !- Direction of Relative North {deg}
    0,                       !- X Origin {m}
    0,                       !- Y Origin {m}
    0,                       !- Z Origin {m}
    ,                        !- Type
    1,                       !- Multiplier
    6.36547,                 !- Ceiling Height {m}
    983.6561;                !- Volume {m3}

  Zone,
    1.6,                     !- Name
    0,                       !- Direction of Relative North {deg}
    0,                       !- X Origin {m}
    0,                       !- Y Origin {m}
    0,                       !- Z Origin {m}
    ,                        !- Type
    1,                       !- Multiplier
    5.502643,                !- Ceiling Height {m}
    332.3046;                !- Volume {m3}

  Zone,
    1.61,                    !- Name
    0,                       !- Direction of Relative North {deg}
    0,                       !- X Origin {m}
    0,                       !- Y Origin {m}
    0,                       !- Z Origin {m}
    ,                        !- Type
    1,                       !- Multiplier
    7.554885,                !- Ceiling Height {m}
    211.5368;                !- Volume {m3}

  Zone,
    1.7,                     !- Name
    0,                       !- Direction of Relative North {deg}
    0,                       !- X Origin {m}
    0,                       !- Y Origin {m}
    0,                       !- Z Origin {m}
    ,                        !- Type
    1,                       !- Multiplier
    5.704031,                !- Ceiling Height {m}
    1163.622;                !- Volume {m3}

  Zone,
    ATRIUM/1,                !- Name
    0,                       !- Direction of Relative North {deg}
    0,                       !- X Origin {m}
    0,                       !- Y Origin {m}
    0,                       !- Z Origin {m}
    ,                        !- Type
    1,                       !- Multiplier
    4.169,                   !- Ceiling Height {m}
    333.52;                  !- Volume {m3}

  Zone,
    ATRIUM/2,                !- Name
    0,                       !- Direction of Relative North {deg}
    0,                       !- X Origin {m}
    0,                       !- Y Origin {m}
    0,                       !- Z Origin {m}
    ,                        !- Type
    1,                       !- Multiplier
    3.944597,                !- Ceiling Height {m}
    315.5677;                !- Volume {m3}

  BuildingSurface:Detailed,
    0.1 Surf1-1,             !- Name
    FLOOR,                   !- Surface Type
    GFLOORS-3,               !- Construction Name
    0.1,                     !- Zone Name
    GROUND,                  !- Outside Boundary Condition
    ,                        !- Outside Boundary Condition Object
    NoSun,                   !- Sun Exposure
    NoWind,                  !- Wind Exposure
    0,                       !- View Factor to Ground
    4,                       !- Number of Vertices
    13.84,6.44,0,  !- X,Y,Z ==> Vertex 1 {m}
    13.84,3.44,0,  !- X,Y,Z ==> Vertex 2 {m}
    10.34,3.44,0,  !- X,Y,Z ==> Vertex 3 {m}
    10.34,6.44,0;  !- X,Y,Z ==> Vertex 4 {m}

  BuildingSurface:Detailed,
    0.1 Surf2-1,             !- Name
    CEILING,                 !- Surface Type
    CEILINGS-3,              !- Construction Name
    0.1,                     !- Zone Name
    Surface,                 !- Outside Boundary Condition
    1.1 Surf2-1,             !- Outside Boundary Condition Object
    NoSun,                   !- Sun Exposure
    NoWind,                  !- Wind Exposure
    0,                       !- View Factor to Ground
    4,                       !- Number of Vertices
    10.34,6.44,4.169,  !- X,Y,Z ==> Vertex 1 {m}
    10.34,3.44,4.169,  !- X,Y,Z ==> Vertex 2 {m}
    13.84,3.44,4.169,  !- X,Y,Z ==> Vertex 3 {m}
    13.84,6.44,4.169;  !- X,Y,Z ==> Vertex 4 {m}

  BuildingSurface:Detailed,
    0.1 Surf3-1,             !- Name
    WALL,                    !- Surface Type
    INTERNAL.S-7,            !- Construction Name
    0.1,                     !- Zone Name
    Surface,                 !- Outside Boundary Condition
    0.5 Surf16-1,            !- Outside Boundary Condition Object
    NoSun,                   !- Sun Exposure
    NoWind,                  !- Wind Exposure
    0,                       !- View Factor to Ground
    4,                       !- Number of Vertices
    10.34,3.44,0,  !- X,Y,Z ==> Vertex 1 {m}
    10.34,3.44,4.3,  !- X,Y,Z ==> Vertex 2 {m}
    10.34,6.44,4.3,  !- X,Y,Z ==> Vertex 3 {m}
    10.34,6.44,0;  !- X,Y,Z ==> Vertex 4 {m}

  BuildingSurface:Detailed,
    0.1 Surf4-1,             !- Name
    WALL,                    !- Surface Type
    INTERNAL.S-7,            !- Construction Name
    0.1,                     !- Zone Name
    Surface,                 !- Outside Boundary Condition
    ATRIUM/1 Surf18-1,       !- Outside Boundary Condition Object
    NoSun,                   !- Sun Exposure
    NoWind,                  !- Wind Exposure
    0,                       !- View Factor to Ground
    4,                       !- Number of Vertices
    13.84,3.44,0,  !- X,Y,Z ==> Vertex 1 {m}
    13.84,3.44,4.3,  !- X,Y,Z ==> Vertex 2 {m}
    10.34,3.44,4.3,  !- X,Y,Z ==> Vertex 3 {m}
    10.34,3.44,0;  !- X,Y,Z ==> Vertex 4 {m}

  BuildingSurface:Detailed,
    0.1 Surf5-1,             !- Name
    WALL,                    !- Surface Type
    INTERNAL.S-7,            !- Construction Name
    0.1,                     !- Zone Name
    Surface,                 !- Outside Boundary Condition
    0.3 Surf8-1,             !- Outside Boundary Condition Object
    NoSun,                   !- Sun Exposure