!-Generator IDFEditor 1.36a
!-Option SortedOrder
!-NOTE: All comments with '!-' are ignored by the IDFEditor and are generated automatically.
!-      Use '!' comments if they need to be retained when using the IDFEditor.
!-   ===========  ALL OBJECTS IN CLASS: VERSION ===========
!0813 random number
!generated by Simulator v25.0
!date =     06-Feb-2010 time=14:52:52
!calctype = 2
!diskb =    C:\Hevacomp Projects\NA\Single Rm test case\Part L Level 5 - 0\Hevacomp DDB\
!diskc =    C:\Program Files\Heva25\HEVADATA\

  Version,6.0;

!-   ===========  ALL OBJECTS IN CLASS: SIMULATIONCONTROL ===========

  SimulationControl,
    No,                      !- Do Zone Sizing Calculation
    No,                      !- Do System Sizing Calculation
    No,                      !- Do Plant Sizing Calculation
    No,                      !- Run Simulation for Sizing Periods
    Yes;                     !- Run Simulation for Weather File Run Periods

!-   ===========  ALL OBJECTS IN CLASS: BUILDING ===========

  Building,
    Hevacomp,                !- Name
    0,                       !- North Axis {deg}
    City,                    !- Terrain
    0.04,                    !- Loads Convergence Tolerance Value
    0.4,                     !- Temperature Convergence Tolerance Value {deltaC}
    FullExterior,            !- Solar Distribution
    25;                      !- Maximum Number of Warmup Days

!-   ===========  ALL OBJECTS IN CLASS: SHADOWCALCULATION ===========

  ShadowCalculation,
    20,                      !- Calculation Frequency
    40000;                   !- Maximum Figures in Shadow Overlap Calculations

!-   ===========  ALL OBJECTS IN CLASS: SURFACECONVECTIONALGORITHM:INSIDE ===========

  SurfaceConvectionAlgorithm:Inside,TARP;

!-   ===========  ALL OBJECTS IN CLASS: SURFACECONVECTIONALGORITHM:OUTSIDE ===========

  SurfaceConvectionAlgorithm:Outside,TARP;

!-   ===========  ALL OBJECTS IN CLASS: HEATBALANCEALGORITHM ===========

  HeatBalanceAlgorithm,CTF;

!-   ===========  ALL OBJECTS IN CLASS: TIMESTEP ===========

  Timestep,4;

!-   ===========  ALL OBJECTS IN CLASS: SITE:LOCATION ===========

  Site:Location,
    Reims (w-s),             !- Name
    49.3,                    !- Latitude {deg}
    -10.967,                 !- Longitude {deg}
    0.0,                     !- Time Zone {hr}
    94;                      !- Elevation {m}

!-   ===========  ALL OBJECTS IN CLASS: RUNPERIOD ===========

  RunPeriod,
    ,                        !- Name
    7,                       !- Begin Month
    1,                       !- Begin Day of Month
    7,                       !- End Month
    31,                      !- End Day of Month
    Monday,                  !- Day of Week for Start Day
    No,                      !- Use Weather File Holidays and Special Days
    No,                      !- Use Weather File Daylight Saving Period
    Yes,                     !- Apply Weekend Holiday Rule
    Yes,                     !- Use Weather File Rain Indicators
    Yes;                     !- Use Weather File Snow Indicators

!-   ===========  ALL OBJECTS IN CLASS: RUNPERIODCONTROL:DAYLIGHTSAVINGTIME ===========

  RunPeriodControl:DaylightSavingTime,
    3 / 26,                  !- Start Date
    10 / 28;                 !- End Date

!-   ===========  ALL OBJECTS IN CLASS: SITE:GROUNDTEMPERATURE:BUILDINGSURFACE ===========

  Site:GroundTemperature:BuildingSurface,18,18,18,18,18,18,18,18,18,18,18,18;

!-   ===========  ALL OBJECTS IN CLASS: SITE:GROUNDREFLECTANCE ===========

  Site:GroundReflectance,0.2,0.2,0.2,0.2,0.2,0.2,0.2,0.2,0.2,0.2,0.2,0.2;

!-   ===========  ALL OBJECTS IN CLASS: SCHEDULETYPELIMITS ===========

  ScheduleTypeLimits,
    Any;                     !- Name

!-   ===========  ALL OBJECTS IN CLASS: SCHEDULE:DAY:HOURLY ===========

  Schedule:Day:Hourly,
    DaySchedOFF,             !- Name
    Any,                     !- Schedule Type Limits Name
    0,                       !- Hour 1
    0,                       !- Hour 2
    0,                       !- Hour 3
    0,                       !- Hour 4
    0,                       !- Hour 5
    0,                       !- Hour 6
    0,                       !- Hour 7
    0,                       !- Hour 8
    0,                       !- Hour 9
    0,                       !- Hour 10
    0,                       !- Hour 11
    0,                       !- Hour 12
    0,                       !- Hour 13
    0,                       !- Hour 14
    0,                       !- Hour 15
    0,                       !- Hour 16
    0,                       !- Hour 17
    0,                       !- Hour 18
    0,                       !- Hour 19
    0,                       !- Hour 20
    0,                       !- Hour 21
    0,                       !- Hour 22
    0,                       !- Hour 23
    0;                       !- Hour 24

  Schedule:Day:Hourly,
    DaySchedON,              !- Name
    Any,                     !- Schedule Type Limits Name
    1,                       !- Hour 1
    1,                       !- Hour 2
    1,                       !- Hour 3
    1,                       !- Hour 4
    1,                       !- Hour 5
    1,                       !- Hour 6
    1,                       !- Hour 7
    1,                       !- Hour 8
    1,                       !- Hour 9
    1,                       !- Hour 10
    1,                       !- Hour 11
    1,                       !- Hour 12
    1,                       !- Hour 13
    1,                       !- Hour 14
    1,                       !- Hour 15
    1,                       !- Hour 16
    1,                       !- Hour 17
    1,                       !- Hour 18
    1,                       !- Hour 19
    1,                       !- Hour 20
    1,                       !- Hour 21
    1,                       !- Hour 22
    1,                       !- Hour 23
    1;                       !- Hour 24

!-   ===========  ALL OBJECTS IN CLASS: SCHEDULE:COMPACT ===========

  Schedule:Compact,
    SCHED GAIN1,             !- Name
    Any,                     !- Schedule Type Limits Name
    Through: 12/31,          !- Field 1
    For: AllDays,            !- Field 2
    Until: 1:00,0,           !- Field 3
    Until: 2:00,0,           !- Field 5
    Until: 3:00,0,           !- Field 7
    Until: 4:00,0,           !- Field 9
    Until: 5:00,0,           !- Field 11
    Until: 6:00,0,           !- Field 13
    Until: 7:00,0,           !- Field 15
    Until: 8:00,0,           !- Field 17
    Until: 9:00,1,           !- Field 19
    Until: 10:00,1,          !- Field 21
    Until: 11:00,1,          !- Field 23
    Until: 12:00,1,          !- Field 25
    Until: 13:00,1,          !- Field 27
    Until: 14:00,1,          !- Field 29
    Until: 15:00,1,          !- Field 31
    Until: 16:00,1,          !- Field 33
    Until: 17:00,1,          !- Field 35
    Until: 18:00,1,          !- Field 37
    Until: 19:00,0,          !- Field 39
    Until: 20:00,0,          !- Field 41
    Until: 21:00,0,          !- Field 43
    Until: 22:00,0,          !- Field 45
    Until: 23:00,0,          !- Field 47
    Until: 24:00,0;          !- Field 49

  Schedule:Compact,
    SCHED GAIN2,             !- Name
    Any,                     !- Schedule Type Limits Name
    Through: 12/31,          !- Field 1
    For: AllDays,            !- Field 2
    Until: 1:00,1,           !- Field 3
    Until: 2:00,1,           !- Field 5
    Until: 3:00,1,           !- Field 7
    Until: 4:00,1,           !- Field 9
    Until: 5:00,1,           !- Field 11
    Until: 6:00,1,           !- Field 13
    Until: 7:00,1,           !- Field 15
    Until: 8:00,1,           !- Field 17
    Until: 9:00,1,           !- Field 19
    Until: 10:00,1,          !- Field 21
    Until: 11:00,1,          !- Field 23
    Until: 12:00,1,          !- Field 25
    Until: 13:00,1,          !- Field 27
    Until: 14:00,1,          !- Field 29
    Until: 15:00,1,          !- Field 31
    Until: 16:00,1,          !- Field 33
    Until: 17:00,1,          !- Field 35
    Until: 18:00,1,          !- Field 37
    Until: 19:00,1,          !- Field 39
    Until: 20:00,1,          !- Field 41
    Until: 21:00,1,          !- Field 43
    Until: 22:00,1,          !- Field 45
    Until: 23:00,1,          !- Field 47
    Until: 24:00,1;          !- Field 49

  Schedule:Compact,
    SCHED OCCUP1,            !- Name
    Any,                     !- Schedule Type Limits Name
    Through: 12/31,          !- Field 1
    For: AllDays,            !- Field 2
    Until: 1:00,0,           !- Field 3
    Until: 2:00,0,           !- Field 5
    Until: 3:00,0,           !- Field 7
    Until: 4:00,0,           !- Field 9
    Until: 5:00,0,           !- Field 11
    Until: 6:00,0,           !- Field 13
    Until: 7:00,0,           !- Field 15
    Until: 8:00,0,           !- Field 17
    Until: 9:00,1,           !- Field 19
    Until: 10:00,1,          !- Field 21
    Until: 11:00,1,          !- Field 23
    Until: 12:00,1,          !- Field 25
    Until: 13:00,1,          !- Field 27
    Until: 14:00,1,          !- Field 29
    Until: 15:00,1,          !- Field 31
    Until: 16:00,1,          !- Field 33
    Until: 17:00,1,          !- Field 35
    Until: 18:00,1,          !- Field 37
    Until: 19:00,0,          !- Field 39
    Until: 20:00,0,          !- Field 41
    Until: 21:00,0,          !- Field 43
    Until: 22:00,0,          !- Field 45
    Until: 23:00,0,          !- Field 47
    Until: 24:00,0;          !- Field 49

  Schedule:Compact,
    PurchaseRTEMP1,          !- Name
    Any,                     !- Schedule Type Limits Name
    Through: 12/31,          !- Field 1
    For: AllDays,            !- Field 2
    Until: 24:00,18;         !- Field 3

  Schedule:Compact,
    PurchaseRTEMP2,          !- Name
    Any,                     !- Schedule Type Limits Name
    Through: 12/31,          !- Field 1
    For: AllDays,            !- Field 2
    Until: 24:00,23;         !- Field 3

  Schedule:Compact,
    PurchaseRTEMP3,          !- Name
    Any,                     !- Schedule Type Limits Name
    Through: 12/31,          !- Field 1
    For: AllDays,            !- Field 2
    Until: 24:00,16;         !- Field 3

  Schedule:Compact,
    PurchaseRTEMP4,          !- Name
    Any,                     !- Schedule Type Limits Name
    Through: 12/31,          !- Field 1
    For: AllDays,            !- Field 2
    Until: 24:00,20;         !- Field 3

  Schedule:Compact,
    DaySchedOFF,             !- Name
    Any,                     !- Schedule Type Limits Name
    Through: 12/31,          !- Field 1
    For: AllDays,            !- Field 2
    Until: 24:00,0;          !- Field 3

  Schedule:Compact,
    DaySchedON,              !- Name
    Any,                     !- Schedule Type Limits Name
    Through: 12/31,          !- Field 1
    For: AllDays,            !- Field 2
    Until: 24:00,1;          !- Field 3

  Schedule:Compact,
    SCHED INFILBASIC,        !- Name
    Any,                     !- Schedule Type Limits Name
    Through: 12/31,          !- Field 1
    For: AllDays,            !- Field 2
    Until: 24:00,1.0;        !- Field 3

  Schedule:Compact,
    ACTIVITY 160,            !- Name
    Any,                     !- Schedule Type Limits Name
    Through: 12/31,          !- Field 1
    For: AllDays,            !- Field 2
    Until: 24:00,160;        !- Field 3

  Schedule:Compact,
    DeadBand,                !- Name
    Any,                     !- Schedule Type Limits Name
    Through: 12/31,          !- Field 1
    For: AllDays,            !- Field 2
    Until: 24:00,4;          !- Field 3

  Schedule:Compact,
    AlwaysON,                !- Name
    Any,                     !- Schedule Type Limits Name
    Through: 12/31,          !- Field 1
    For: AllDays,            !- Field 2
    Until: 24:00,1;          !- Field 3

!-   ===========  ALL OBJECTS IN CLASS: MATERIAL ===========

  Material,
    MAT1,                    !- Name
    MediumRough,             !- Roughness
    0.105,                   !- Thickness {m}
    0.84,                    !- Conductivity {W/m-K}
    1700,                    !- Density {kg/m3}
    800,                     !- Specific Heat {J/kg-K}
    0.9,                     !- Thermal Absorptance
    0.6,                     !- Solar Absorptance
    0.6;                     !- Visible Absorptance

  Material,
    MAT2,                    !- Name
    MediumRough,             !- Roughness
    0.125,                   !- Thickness {m}
    0.04,                    !- Conductivity {W/m-K}
    12,                      !- Density {kg/m3}
    840,                     !- Specific Heat {J/kg-K}
    0.9,                     !- Thermal Absorptance
    0.6,                     !- Solar Absorptance
    0.6;                     !- Visible Absorptance

  Material,
    MAT3,                    !- Name
    MediumRough,             !- Roughness
    0.1,                     !- Thickness {m}
    0.29,                    !- Conductivity {W/m-K}
    720,                     !- Density {kg/m3}
    1069,                    !- Specific Heat {J/kg-K}
    0.9,                     !- Thermal Absorptance
    0.6,                     !- Solar Absorptance
    0.6;                     !- Visible Absorptance

  Material,
    MAT4,                    !- Name
    MediumRough,             !- Roughness
    0.012,                   !- Thickness {m}
    0.18,                    !- Conductivity {W/m-K}
    800,                     !- Density {kg/m3}
    840,                     !- Specific Heat {J/kg-K}
    0.9,                     !- Thermal Absorptance
    0.6,                     !- Solar Absorptance
    0.6;                     !- Visible Absorptance

  Material,
    MAT5,                    !- Name
    MediumRough,             !- Roughness
    0.006,                   !- Thickness {m}
    2,                       !- Conductivity {W/m-K}
    2700,                    !- Density {kg/m3}
    753,                     !- Specific Heat {J/kg-K}
    0.9,                     !- Thermal Absorptance
    0.6,                     !- Solar Absorptance
    0.6;                     !- Visible Absorptance

  Material,
    MAT6,                    !- Name
    MediumRough,             !- Roughness
    0.002,                   !- Thickness {m}
    0.41,                    !- Conductivity {W/m-K}
    960,                     !- Density {kg/m3}
    1000,                    !- Specific Heat {J/kg-K}
    0.9,                     !- Thermal Absorptance
    0.6,                     !- Solar Absorptance
    0.6;                     !- Visible Absorptance

  Material,
    MAT7,                    !- Name
    MediumRough,             !- Roughness
    0.2,                     !- Thickness {m}
    0.033,                   !- Conductivity {W/m-K}
    32,                      !- Density {kg/m3}
    1210,                    !- Specific Heat {J/kg-K}
    0.9,                     !- Thermal Absorptance
    0.6,                     !- Solar Absorptance
    0.6;                     !- Visible Absorptance

  Material,
    MAT8,                    !- Name
    MediumRough,             !- Roughness
    0.012,                   !- Thickness {m}
    0.15,                    !- Conductivity {W/m-K}
    800,                     !- Density {kg/m3}
    1000,                    !- Specific Heat {J/kg-K}
    0.9,                     !- Thermal Absorptance
    0.6,                     !- Solar Absorptance
    0.6;                     !- Visible Absorptance

  Material,
    MAT9,                    !- Name
    MediumRough,             !- Roughness
    0.025,                   !- Thickness {m}
    0.14,                    !- Conductivity {W/m-K}
    530,                     !- Density {kg/m3}
    2760,                    !- Specific Heat {J/kg-K}
    0.9,                     !- Thermal Absorptance
    0.6,                     !- Solar Absorptance
    0.6;                     !- Visible Absorptance

  Material,
    MAT10,                   !- Name
    MediumRough,             !- Roughness
    0.012,                   !- Thickness {m}
    0.16,                    !- Conductivity {W/m-K}
    950,                     !- Density {kg/m3}
    840,                     !- Specific Heat {J/kg-K}
    0.9,                     !- Thermal Absorptance
    0.6,                     !- Solar Absorptance
    0.6;                     !- Visible Absorptance

  Material,
    MAT11,                   !- Name
    MediumRough,             !- Roughness
    0.019,                   !- Thickness {m}
    0.14,                    !- Conductivity {W/m-K}
    650,                     !- Density {kg/m3}
    1200,                    !- Specific Heat {J/kg-K}
    0.9,                     !- Thermal Absorptance
    0.6,                     !- Solar Absorptance
    0.6;                     !- Visible Absorptance

  Material,
    MAT12,                   !- Name
    MediumRough,             !- Roughness
    0.5,                     !- Thickness {m}
    1.127,                   !- Conductivity {W/m-K}
    1842,                    !- Density {kg/m3}
    898,                     !- Specific Heat {J/kg-K}
    0.9,                     !- Thermal Absorptance
    0.9,                     !- Solar Absorptance
    0.9;                     !- Visible Absorptance

  Material,
    MAT13,                   !- Name
    MediumRough,             !- Roughness
    0.15,                    !- Thickness {m}
    1.4,                     !- Conductivity {W/m-K}
    2100,                    !- Density {kg/m3}
    840,                     !- Specific Heat {J/kg-K}
    0.9,                     !- Thermal Absorptance
    0.9,                     !- Solar Absorptance
    0.9;                     !- Visible Absorptance

  Material,
    MAT14,                   !- Name
    MediumRough,             !- Roughness
    0.05,                    !- Thickness {m}
    0.41,                    !- Conductivity {W/m-K}
    1200,                    !- Density {kg/m3}
    840,                     !- Specific Heat {J/kg-K}
    0.9,                     !- Thermal Absorptance
    0.9,                     !- Solar Absorptance
    0.9;                     !- Visible Absorptance

  Material,
    MAT15,                   !- Name
    MediumRough,             !- Roughness
    0.012,                   !- Thickness {m}
    0.06,                    !- Conductivity {W/m-K}
    200,                     !- Density {kg/m3}
    1000,                    !- Specific Heat {J/kg-K}
    0.9,                     !- Thermal Absorptance
    0.6,                     !- Solar Absorptance
    0.6;                     !- Visible Absorptance

  Material,
    MAT16,                   !- Name
    MediumRough,             !- Roughness
    0.03,                    !- Thickness {m}
    0.16,                    !- Conductivity {W/m-K}
    770,                     !- Density {kg/m3}
    1200,                    !- Specific Heat {J/kg-K}
    0.9,                     !- Thermal Absorptance
    0.6,                     !- Solar Absorptance
    0.6;                     !- Visible Absorptance

  Material,
    MATFURN1,                !- Name
    MediumRough,             !- Roughness
    0.01,                    !- Thickness {m}
    0.1,                     !- Conductivity {W/m-K}
    600,                     !- Density {kg/m3}
    1000,                    !- Specific Heat {J/kg-K}
    0.9,                     !- Thermal Absorptance
    0.6,                     !- Solar Absorptance
    0.6;                     !- Visible Absorptance

  Material,
    MATFURN2,                !- Name
    MediumRough,             !- Roughness
    0.025,                   !- Thickness {m}
    0.1,                     !- Conductivity {W/m-K}
    600,                     !- Density {kg/m3}
    1000,                    !- Specific Heat {J/kg-K}
    0.9,                     !- Thermal Absorptance
    0.6,                     !- Solar Absorptance
    0.6;                     !- Visible Absorptance

  Material,
    MATFURN3,                !- Name
    MediumRough,             !- Roughness
    0.2,                     !- Thickness {m}
    0.1,                     !- Conductivity {W/m-K}
    600,                     !- Density {kg/m3}
    1000,                    !- Specific Heat {J/kg-K}
    0.9,                     !- Thermal Absorptance
    0.6,                     !- Solar Absorptance
    0.6;                     !- Visible Absorptance

  Material,
    DUMMYmat,                !- Name
    MediumRough,             !- Roughness
    1,                       !- Thickness {m}
    0.03,                    !- Conductivity {W/m-K}
    30,                      !- Density {kg/m3}
    1000,                    !- Specific Heat {J/kg-K}
    0.01,                    !- Thermal Absorptance
    0.01,                    !- Solar Absorptance
    0.01;                    !- Visible Absorptance

!-   ===========  ALL OBJECTS IN CLASS: MATERIAL:AIRGAP ===========

  Material:AirGap,
    AIR1,                    !- Name
    9.153774E-02;            !- Thermal Resistance {m2-K/W}

  Material:AirGap,
    AIR2,                    !- Name
    0.1830755;               !- Thermal Resistance {m2-K/W}

  Material:AirGap,
    AIR3,                    !- Name
    0.1912054;               !- Thermal Resistance {m2-K/W}

  Material:AirGap,
    AIR4,                    !- Name
    0.1912054;               !- Thermal Resistance {m2-K/W}

!-   ===========  ALL OBJECTS IN CLASS: WINDOWMATERIAL:GLAZING ===========

  WindowMaterial:Glazing,
    GLASS1,                  !- Name
    SpectralAverage,         !- Optical Data Type
    ,                        !- Window Glass Spectral Data Set Name
    0.006,                   !- Thickness {m}
    0.74,                    !- Solar Transmittance at Normal Incidence
    0.13,                    !- Front Side Solar Reflectance at Normal Incidence
    0.13,                    !- Back Side Solar Reflectance at Normal Incidence
    0.74,                    !- Visible Transmittance at Normal Incidence
    0.13,                    !- Front Side Visible Reflectance at Normal Incidence
    0.13,                    !- Back Side Visible Reflectance at Normal Incidence
    0,                       !- Infrared Transmittance at Normal Incidence
    0.837,                   !- Front Side Infrared Hemispherical Emissivity
    0.837,                   !- Back Side Infrared Hemispherical Emissivity
    1;                       !- Conductivity {W/m-K}

  WindowMaterial:Glazing,
    GLASS2,                  !- Name
    SpectralAverage,         !- Optical Data Type
    ,                        !- Window Glass Spectral Data Set Name
    0.006,                   !- Thickness {m}
    0.66,                    !- Solar Transmittance at Normal Incidence
    0.11,                    !- Front Side Solar Reflectance at Normal Incidence
    0.11,                    !- Back Side Solar Reflectance at Normal Incidence
    0.66,                    !- Visible Transmittance at Normal Incidence
    0.11,                    !- Front Side Visible Reflectance at Normal Incidence
    0.11,                    !- Back Side Visible Reflectance at Normal Incidence
    0,                       !- Infrared Transmittance at Normal Incidence
    0.168,                   !- Front Side Infrared Hemispherical Emissivity
    0.837,                   !- Back Side Infrared Hemispherical Emissivity
    1;                       !- Conductivity {W/m-K}

  WindowMaterial:Glazing,
    GLASS3,                  !- Name
    SpectralAverage,         !- Optical Data Type
    ,                        !- Window Glass Spectral Data Set Name
    0.006,                   !- Thickness {m}
    0.37,                    !- Solar Transmittance at Normal Incidence
    0.29,                    !- Front Side Solar Reflectance at Normal Incidence
    0.29,                    !- Back Side Solar Reflectance at Normal Incidence
    0.37,                    !- Visible Transmittance at Normal Incidence
    0.29,                    !- Front Side Visible Reflectance at Normal Incidence
    0.29,                    !- Back Side Visible Reflectance at Normal Incidence
    0,                       !- Infrared Transmittance at Normal Incidence
    0.837,                   !- Front Side Infrared Hemispherical Emissivity
    0.025,                   !- Back Side Infrared Hemispherical Emissivity
    1.05;                    !- Conductivity {W/m-K}

  WindowMaterial:Glazing,
    GLASS4,                  !- Name
    SpectralAverage,         !- Optical Data Type
    ,                        !- Window Glass Spectral Data Set Name
    0.006,                   !- Thickness {m}
    0.79,                    !- Solar Transmittance at Normal Incidence
    0.07,                    !- Front Side Solar Reflectance at Normal Incidence
    0.07,                    !- Back Side Solar Reflectance at Normal Incidence
    0.79,                    !- Visible Transmittance at Normal Incidence
    0.07,                    !- Front Side Visible Reflectance at Normal Incidence
    0.07,                    !- Back Side Visible Reflectance at Normal Incidence
    0,                       !- Infrared Transmittance at Normal Incidence
    0.837,                   !- Front Side Infrared Hemispherical Emissivity
    0.837,                   !- Back Side Infrared Hemispherical Emissivity
    1;                       !- Conductivity {W/m-K}

!-   ===========  ALL OBJECTS IN CLASS: WINDOWMATERIAL:GAS ===========

  WindowMaterial:Gas,
    GAS1,                    !- Name
    ARGON,                   !- Gas Type
    0.016;                   !- Thickness {m}

!-   ===========  ALL OBJECTS IN CLASS: WINDOWMATERIAL:SHADE ===========

  WindowMaterial:Shade,
    WSHADE-1,                !- Name
    0.07,                    !- Solar Transmittance
    0.4,                     !- Solar Reflectance
    0.07,                    !- Visible Transmittance
    0.4,                     !- Visible Reflectance
    0.837,                   !- Thermal Hemispherical Emissivity
    0,                       !- Thermal Transmittance
    0.001,                   !- Thickness {m}
    100,                     !- Conductivity {W/m-K}
    0.1,                     !- Shade to Glass Distance {m}
    0,                       !- Top Opening Multiplier
    0,                       !- Bottom Opening Multiplier
    0,                       !- Left-Side Opening Multiplier
    0,                       !- Right-Side Opening Multiplier
    0;                       !- Airflow Permeability

!-   ===========  ALL OBJECTS IN CLASS: CONSTRUCTION ===========

  Construction,
    WINDOW-27-NOSHADE,       !- Name
    GLASS1,                  !- Outside Layer
    GAS1,                    !- Layer 2
    GLASS2;                  !- Layer 3

  Construction,
    WINDOW-27-WITHSHADE,     !- Name
    GLASS1,                  !- Outside Layer
    GAS1,                    !- Layer 2
    GLASS2,                  !- Layer 3
    WSHADE-1;                !- Layer 4

  Construction,
    WINDOW-14-NOSHADE,       !- Name
    GLASS3,                  !- Outside Layer
    GAS1,                    !- Layer 2
    GLASS4;                  !- Layer 3

  Construction,
    GFLOORS-3,               !- Name
    MAT12,                   !- Outside Layer
    MAT13,                   !- Layer 2
    MAT14,                   !- Layer 3
    MAT15;                   !- Layer 4

  Construction,
    CEILINGS-3,              !- Name
    MAT11,                   !- Outside Layer
    AIR3,                    !- Layer 2
    MAT10;                   !- Layer 3

  Construction,
    INTERNAL.S-7,            !- Name
    MAT4,                    !- Outside Layer
    AIR2,                    !- Layer 2
    MAT4;                    !- Layer 3

  Construction,
    WALLS-42,                !- Name
    MAT1,                    !- Outside Layer
    AIR1,                    !- Layer 2
    MAT2,                    !- Layer 3
    MAT3,                    !- Layer 4
    MAT4;                    !- Layer 5

  Construction,
    DOORS-1,                 !- Name
    MAT16;                   !- Outside Layer

  Construction,
    ROOFS-15,                !- Name
    MAT5,                    !- Outside Layer
    MAT6,                    !- Layer 2
    MAT7,                    !- Layer 3
    MAT8,                    !- Layer 4
    AIR3,                    !- Layer 5
    MAT9,                    !- Layer 6
    AIR3,                    !- Layer 7
    MAT10;                   !- Layer 8

  Construction,
    FLOORS-3,                !- Name
    MAT10,                   !- Outside Layer
    AIR4,                    !- Layer 2
    MAT11;                   !- Layer 3

  Construction,
    FURN1,                   !- Name
    MATFURN1;                !- Outside Layer

  Construction,
    FURN2,                   !- Name
    MATFURN2;                !- Outside Layer

  Construction,
    FURN3,                   !- Name
    MATFURN3;                !- Outside Layer

  Construction,
    DUMMY,                   !- Name
    DUMMYmat;                !- Outside Layer

!-   ===========  ALL OBJECTS IN CLASS: GLOBALGEOMETRYRULES ===========

  GlobalGeometryRules,